<?xml version="1.0" ?>
<connections xmlns:xsi="http://www.w3.org/2001/XMLSchema-instance" xsi:noNamespaceSchemaLocation="http://sumo.dlr.de/xsd/connections_file.xsd">
    <connection from="E_TOP_L" to="E_TOP_L_R" fromLane="0" toLane="2" dir="t"/>
    <connection from="E_TOP_L" to="E_TOP_L_R" fromLane="1" toLane="2" dir="t"/>
    <connection from="E_TOP_L" to="E_TOP_L_R" fromLane="2" toLane="2" dir="t"/>
    <connection from="E_TOP_L" to="E_TOP_R" fromLane="0" toLane="0" dir="s"/>
    <connection from="E_TOP_L" to="E_TOP_R" fromLane="1" toLane="1" dir="s"/>
    <connection from="E_TOP_L" to="E_TOP_R" fromLane="2" toLane="2" dir="s"/>
    <connection from="E_TOP_L" to="E_CENTER_TOP" fromLane="0" toLane="0" dir="r"/>
    <connection from="E_TOP_L" to="E_CENTER_TOP" fromLane="1" toLane="0" dir="r"/>
    <connection from="E_TOP_L" to="E_CENTER_TOP" fromLane="2" toLane="0" dir="r"/>
    <connection from="E_TOP_R_R" to="E_TOP_L_R" fromLane="0" toLane="0" dir="s"/>
    <connection from="E_TOP_R_R" to="E_TOP_L_R" fromLane="1" toLane="1" dir="s"/>
    <connection from="E_TOP_R_R" to="E_TOP_L_R" fromLane="2" toLane="2" dir="s"/>
    <connection from="E_TOP_R_R" to="E_TOP_R" fromLane="0" toLane="2" dir="t"/>
    <connection from="E_TOP_R_R" to="E_TOP_R" fromLane="1" toLane="2" dir="t"/>
    <connection from="E_TOP_R_R" to="E_TOP_R" fromLane="2" toLane="2" dir="t"/>
    <connection from="E_TOP_R_R" to="E_CENTER_TOP" fromLane="0" toLane="2" dir="l"/>
    <connection from="E_TOP_R_R" to="E_CENTER_TOP" fromLane="1" toLane="2" dir="l"/>
    <connection from="E_TOP_R_R" to="E_CENTER_TOP" fromLane="2" toLane="2" dir="l"/>
    <connection from="E_CENTER_TOP_R" to="E_TOP_L_R" fromLane="0" toLane="2" dir="l"/>
    <connection from="E_CENTER_TOP_R" to="E_TOP_L_R" fromLane="1" toLane="2" dir="l"/>
    <connection from="E_CENTER_TOP_R" to="E_TOP_L_R" fromLane="2" toLane="2" dir="l"/>
    <connection from="E_CENTER_TOP_R" to="E_TOP_R" fromLane="0" toLane="0" dir="r"/>
    <connection from="E_CENTER_TOP_R" to="E_TOP_R" fromLane="1" toLane="0" dir="r"/>
    <connection from="E_CENTER_TOP_R" to="E_TOP_R" fromLane="2" toLane="0" dir="r"/>
    <connection from="E_CENTER_TOP_R" to="E_CENTER_TOP" fromLane="0" toLane="2" dir="t"/>
    <connection from="E_CENTER_TOP_R" to="E_CENTER_TOP" fromLane="1" toLane="2" dir="t"/>
    <connection from="E_CENTER_TOP_R" to="E_CENTER_TOP" fromLane="2" toLane="2" dir="t"/>
    <connection from="E_TOP_L_R" to="E_TOP_L" fromLane="0" toLane="2" dir="t"/>
    <connection from="E_TOP_L_R" to="E_TOP_L" fromLane="1" toLane="2" dir="t"/>
    <connection from="E_TOP_L_R" to="E_TOP_L" fromLane="2" toLane="2" dir="t"/>
    <connection from="E_TOP_L_R" to="E_LEFT_UP" fromLane="0" toLane="2" dir="l"/>
    <connection from="E_TOP_L_R" to="E_LEFT_UP" fromLane="1" toLane="2" dir="l"/>
    <connection from="E_TOP_L_R" to="E_LEFT_UP" fromLane="2" toLane="2" dir="l"/>
    <connection from="E_LEFT_UP_R" to="E_TOP_L" fromLane="0" toLane="0" dir="r"/>
    <connection from="E_LEFT_UP_R" to="E_TOP_L" fromLane="1" toLane="0" dir="r"/>
    <connection from="E_LEFT_UP_R" to="E_TOP_L" fromLane="2" toLane="0" dir="r"/>
    <connection from="E_LEFT_UP_R" to="E_LEFT_UP" fromLane="0" toLane="2" dir="t"/>
    <connection from="E_LEFT_UP_R" to="E_LEFT_UP" fromLane="1" toLane="2" dir="t"/>
    <connection from="E_LEFT_UP_R" to="E_LEFT_UP" fromLane="2" toLane="2" dir="t"/>
    <connection from="E_TOP_R" to="E_TOP_R_R" fromLane="0" toLane="2" dir="t"/>
    <connection from="E_TOP_R" to="E_TOP_R_R" fromLane="1" toLane="2" dir="t"/>
    <connection from="E_TOP_R" to="E_TOP_R_R" fromLane="2" toLane="2" dir="t"/>
    <connection from="E_TOP_R" to="E_RIGHT_UP" fromLane="0" toLane="0" dir="r"/>
    <connection from="E_TOP_R" to="E_RIGHT_UP" fromLane="1" toLane="0" dir="r"/>
    <connection from="E_TOP_R" to="E_RIGHT_UP" fromLane="2" toLane="0" dir="r"/>
    <connection from="E_RIGHT_UP_R" to="E_TOP_R_R" fromLane="0" toLane="2" dir="l"/>
    <connection from="E_RIGHT_UP_R" to="E_TOP_R_R" fromLane="1" toLane="2" dir="l"/>
    <connection from="E_RIGHT_UP_R" to="E_TOP_R_R" fromLane="2" toLane="2" dir="l"/>
    <connection from="E_RIGHT_UP_R" to="E_RIGHT_UP" fromLane="0" toLane="2" dir="t"/>
    <connection from="E_RIGHT_UP_R" to="E_RIGHT_UP" fromLane="1" toLane="2" dir="t"/>
    <connection from="E_RIGHT_UP_R" to="E_RIGHT_UP" fromLane="2" toLane="2" dir="t"/>
    <connection from="E_BOTTOM_L" to="E_BOTTOM_L_R" fromLane="0" toLane="2" dir="t"/>
    <connection from="E_BOTTOM_L" to="E_BOTTOM_L_R" fromLane="1" toLane="2" dir="t"/>
    <connection from="E_BOTTOM_L" to="E_BOTTOM_L_R" fromLane="2" toLane="2" dir="t"/>
    <connection from="E_BOTTOM_L" to="E_BOTTOM_R" fromLane="0" toLane="0" dir="s"/>
    <connection from="E_BOTTOM_L" to="E_BOTTOM_R" fromLane="1" toLane="1" dir="s"/>
    <connection from="E_BOTTOM_L" to="E_BOTTOM_R" fromLane="2" toLane="2" dir="s"/>
    <connection from="E_BOTTOM_L" to="E_CENTER_LOW_R" fromLane="0" toLane="2" dir="l"/>
    <connection from="E_BOTTOM_L" to="E_CENTER_LOW_R" fromLane="1" toLane="2" dir="l"/>
    <connection from="E_BOTTOM_L" to="E_CENTER_LOW_R" fromLane="2" toLane="2" dir="l"/>
    <connection from="E_BOTTOM_R_R" to="E_BOTTOM_L_R" fromLane="0" toLane="0" dir="s"/>
    <connection from="E_BOTTOM_R_R" to="E_BOTTOM_L_R" fromLane="1" toLane="1" dir="s"/>
    <connection from="E_BOTTOM_R_R" to="E_BOTTOM_L_R" fromLane="2" toLane="2" dir="s"/>
    <connection from="E_BOTTOM_R_R" to="E_BOTTOM_R" fromLane="0" toLane="2" dir="t"/>
    <connection from="E_BOTTOM_R_R" to="E_BOTTOM_R" fromLane="1" toLane="2" dir="t"/>
    <connection from="E_BOTTOM_R_R" to="E_BOTTOM_R" fromLane="2" toLane="2" dir="t"/>
    <connection from="E_BOTTOM_R_R" to="E_CENTER_LOW_R" fromLane="0" toLane="0" dir="r"/>
    <connection from="E_BOTTOM_R_R" to="E_CENTER_LOW_R" fromLane="1" toLane="0" dir="r"/>
    <connection from="E_BOTTOM_R_R" to="E_CENTER_LOW_R" fromLane="2" toLane="0" dir="r"/>
    <connection from="E_CENTER_LOW" to="E_BOTTOM_L_R" fromLane="0" toLane="0" dir="r"/>
    <connection from="E_CENTER_LOW" to="E_BOTTOM_L_R" fromLane="1" toLane="0" dir="r"/>
    <connection from="E_CENTER_LOW" to="E_BOTTOM_L_R" fromLane="2" toLane="0" dir="r"/>
    <connection from="E_CENTER_LOW" to="E_BOTTOM_R" fromLane="0" toLane="2" dir="l"/>
    <connection from="E_CENTER_LOW" to="E_BOTTOM_R" fromLane="1" toLane="2" dir="l"/>
    <connection from="E_CENTER_LOW" to="E_BOTTOM_R" fromLane="2" toLane="2" dir="l"/>
    <connection from="E_CENTER_LOW" to="E_CENTER_LOW_R" fromLane="0" toLane="2" dir="t"/>
    <connection from="E_CENTER_LOW" to="E_CENTER_LOW_R" fromLane="1" toLane="2" dir="t"/>
    <connection from="E_CENTER_LOW" to="E_CENTER_LOW_R" fromLane="2" toLane="2" dir="t"/>
    <connection from="E_BOTTOM_L_R" to="E_BOTTOM_L" fromLane="0" toLane="2" dir="t"/>
    <connection from="E_BOTTOM_L_R" to="E_BOTTOM_L" fromLane="1" toLane="2" dir="t"/>
    <connection from="E_BOTTOM_L_R" to="E_BOTTOM_L" fromLane="2" toLane="2" dir="t"/>
    <connection from="E_BOTTOM_L_R" to="E_LEFT_LOW_R" fromLane="0" toLane="0" dir="r"/>
    <connection from="E_BOTTOM_L_R" to="E_LEFT_LOW_R" fromLane="1" toLane="0" dir="r"/>
    <connection from="E_BOTTOM_L_R" to="E_LEFT_LOW_R" fromLane="2" toLane="0" dir="r"/>
    <connection from="E_LEFT_LOW" to="E_BOTTOM_L" fromLane="0" toLane="2" dir="l"/>
    <connection from="E_LEFT_LOW" to="E_BOTTOM_L" fromLane="1" toLane="2" dir="l"/>
    <connection from="E_LEFT_LOW" to="E_BOTTOM_L" fromLane="2" toLane="2" dir="l"/>
    <connection from="E_LEFT_LOW" to="E_LEFT_LOW_R" fromLane="0" toLane="2" dir="t"/>
    <connection from="E_LEFT_LOW" to="E_LEFT_LOW_R" fromLane="1" toLane="2" dir="t"/>
    <connection from="E_LEFT_LOW" to="E_LEFT_LOW_R" fromLane="2" toLane="2" dir="t"/>
    <connection from="E_BOTTOM_R" to="E_BOTTOM_R_R" fromLane="0" toLane="2" dir="t"/>
    <connection from="E_BOTTOM_R" to="E_BOTTOM_R_R" fromLane="1" toLane="2" dir="t"/>
    <connection from="E_BOTTOM_R" to="E_BOTTOM_R_R" fromLane="2" toLane="2" dir="t"/>
    <connection from="E_BOTTOM_R" to="E_RIGHT_LOW_R" fromLane="0" toLane="2" dir="l"/>
    <connection from="E_BOTTOM_R" to="E_RIGHT_LOW_R" fromLane="1" toLane="2" dir="l"/>
    <connection from="E_BOTTOM_R" to="E_RIGHT_LOW_R" fromLane="2" toLane="2" dir="l"/>
    <connection from="E_RIGHT_LOW" to="E_BOTTOM_R_R" fromLane="0" toLane="0" dir="r"/>
    <connection from="E_RIGHT_LOW" to="E_BOTTOM_R_R" fromLane="1" toLane="0" dir="r"/>
    <connection from="E_RIGHT_LOW" to="E_BOTTOM_R_R" fromLane="2" toLane="0" dir="r"/>
    <connection from="E_RIGHT_LOW" to="E_RIGHT_LOW_R" fromLane="0" toLane="2" dir="t"/>
    <connection from="E_RIGHT_LOW" to="E_RIGHT_LOW_R" fromLane="1" toLane="2" dir="t"/>
    <connection from="E_RIGHT_LOW" to="E_RIGHT_LOW_R" fromLane="2" toLane="2" dir="t"/>
    <connection from="E_LEFT_UP" to="E_LEFT_UP_R" fromLane="0" toLane="2" dir="t"/>
    <connection from="E_LEFT_UP" to="E_LEFT_UP_R" fromLane="1" toLane="2" dir="t"/>
    <connection from="E_LEFT_UP" to="E_LEFT_UP_R" fromLane="2" toLane="2" dir="t"/>
    <connection from="E_LEFT_UP" to="E_LEFT_MID" fromLane="0" toLane="0" dir="s"/>
    <connection from="E_LEFT_UP" to="E_LEFT_MID" fromLane="1" toLane="1" dir="s"/>
    <connection from="E_LEFT_UP" to="E_LEFT_MID" fromLane="2" toLane="2" dir="s"/>
    <connection from="E_LEFT_UP" to="E_UPPER_LEFT" fromLane="0" toLane="2" dir="l"/>
    <connection from="E_LEFT_UP" to="E_UPPER_LEFT" fromLane="1" toLane="2" dir="l"/>
    <connection from="E_LEFT_UP" to="E_UPPER_LEFT" fromLane="2" toLane="2" dir="l"/>
    <connection from="E_LEFT_MID_R" to="E_LEFT_UP_R" fromLane="0" toLane="0" dir="s"/>
    <connection from="E_LEFT_MID_R" to="E_LEFT_UP_R" fromLane="1" toLane="1" dir="s"/>
    <connection from="E_LEFT_MID_R" to="E_LEFT_UP_R" fromLane="2" toLane="2" dir="s"/>
    <connection from="E_LEFT_MID_R" to="E_LEFT_MID" fromLane="0" toLane="2" dir="t"/>
    <connection from="E_LEFT_MID_R" to="E_LEFT_MID" fromLane="1" toLane="2" dir="t"/>
    <connection from="E_LEFT_MID_R" to="E_LEFT_MID" fromLane="2" toLane="2" dir="t"/>
    <connection from="E_LEFT_MID_R" to="E_UPPER_LEFT" fromLane="0" toLane="0" dir="r"/>
    <connection from="E_LEFT_MID_R" to="E_UPPER_LEFT" fromLane="1" toLane="0" dir="r"/>
    <connection from="E_LEFT_MID_R" to="E_UPPER_LEFT" fromLane="2" toLane="0" dir="r"/>
    <connection from="E_UPPER_LEFT_R" to="E_LEFT_UP_R" fromLane="0" toLane="0" dir="r"/>
    <connection from="E_UPPER_LEFT_R" to="E_LEFT_UP_R" fromLane="1" toLane="0" dir="r"/>
    <connection from="E_UPPER_LEFT_R" to="E_LEFT_UP_R" fromLane="2" toLane="0" dir="r"/>
    <connection from="E_UPPER_LEFT_R" to="E_LEFT_MID" fromLane="0" toLane="2" dir="l"/>
    <connection from="E_UPPER_LEFT_R" to="E_LEFT_MID" fromLane="1" toLane="2" dir="l"/>
    <connection from="E_UPPER_LEFT_R" to="E_LEFT_MID" fromLane="2" toLane="2" dir="l"/>
    <connection from="E_UPPER_LEFT_R" to="E_UPPER_LEFT" fromLane="0" toLane="2" dir="t"/>
    <connection from="E_UPPER_LEFT_R" to="E_UPPER_LEFT" fromLane="1" toLane="2" dir="t"/>
    <connection from="E_UPPER_LEFT_R" to="E_UPPER_LEFT" fromLane="2" toLane="2" dir="t"/>
    <connection from="E_LEFT_MID" to="E_LEFT_MID_R" fromLane="0" toLane="2" dir="t"/>
    <connection from="E_LEFT_MID" to="E_LEFT_MID_R" fromLane="1" toLane="2" dir="t"/>
    <connection from="E_LEFT_MID" to="E_LEFT_MID_R" fromLane="2" toLane="2" dir="t"/>
    <connection from="E_LEFT_MID" to="E_LEFT_LOW" fromLane="0" toLane="0" dir="s"/>
    <connection from="E_LEFT_MID" to="E_LEFT_LOW" fromLane="1" toLane="1" dir="s"/>
    <connection from="E_LEFT_MID" to="E_LEFT_LOW" fromLane="2" toLane="2" dir="s"/>
    <connection from="E_LEFT_MID" to="E_LOWER_LEFT" fromLane="0" toLane="2" dir="l"/>
    <connection from="E_LEFT_MID" to="E_LOWER_LEFT" fromLane="1" toLane="2" dir="l"/>
    <connection from="E_LEFT_MID" to="E_LOWER_LEFT" fromLane="2" toLane="2" dir="l"/>
    <connection from="E_LEFT_LOW_R" to="E_LEFT_MID_R" fromLane="0" toLane="0" dir="s"/>
    <connection from="E_LEFT_LOW_R" to="E_LEFT_MID_R" fromLane="1" toLane="1" dir="s"/>
    <connection from="E_LEFT_LOW_R" to="E_LEFT_MID_R" fromLane="2" toLane="2" dir="s"/>
    <connection from="E_LEFT_LOW_R" to="E_LEFT_LOW" fromLane="0" toLane="2" dir="t"/>
    <connection from="E_LEFT_LOW_R" to="E_LEFT_LOW" fromLane="1" toLane="2" dir="t"/>
    <connection from="E_LEFT_LOW_R" to="E_LEFT_LOW" fromLane="2" toLane="2" dir="t"/>
    <connection from="E_LEFT_LOW_R" to="E_LOWER_LEFT" fromLane="0" toLane="0" dir="r"/>
    <connection from="E_LEFT_LOW_R" to="E_LOWER_LEFT" fromLane="1" toLane="0" dir="r"/>
    <connection from="E_LEFT_LOW_R" to="E_LOWER_LEFT" fromLane="2" toLane="0" dir="r"/>
    <connection from="E_LOWER_LEFT_R" to="E_LEFT_MID_R" fromLane="0" toLane="0" dir="r"/>
    <connection from="E_LOWER_LEFT_R" to="E_LEFT_MID_R" fromLane="1" toLane="0" dir="r"/>
    <connection from="E_LOWER_LEFT_R" to="E_LEFT_MID_R" fromLane="2" toLane="0" dir="r"/>
    <connection from="E_LOWER_LEFT_R" to="E_LEFT_LOW" fromLane="0" toLane="2" dir="l"/>
    <connection from="E_LOWER_LEFT_R" to="E_LEFT_LOW" fromLane="1" toLane="2" dir="l"/>
    <connection from="E_LOWER_LEFT_R" to="E_LEFT_LOW" fromLane="2" toLane="2" dir="l"/>
    <connection from="E_LOWER_LEFT_R" to="E_LOWER_LEFT" fromLane="0" toLane="2" dir="t"/>
    <connection from="E_LOWER_LEFT_R" to="E_LOWER_LEFT" fromLane="1" toLane="2" dir="t"/>
    <connection from="E_LOWER_LEFT_R" to="E_LOWER_LEFT" fromLane="2" toLane="2" dir="t"/>
    <connection from="E_RIGHT_UP" to="E_RIGHT_UP_R" fromLane="0" toLane="2" dir="t"/>
    <connection from="E_RIGHT_UP" to="E_RIGHT_UP_R" fromLane="1" toLane="2" dir="t"/>
    <connection from="E_RIGHT_UP" to="E_RIGHT_UP_R" fromLane="2" toLane="2" dir="t"/>
    <connection from="E_RIGHT_UP" to="E_RIGHT_MID" fromLane="0" toLane="0" dir="s"/>
    <connection from="E_RIGHT_UP" to="E_RIGHT_MID" fromLane="1" toLane="1" dir="s"/>
    <connection from="E_RIGHT_UP" to="E_RIGHT_MID" fromLane="2" toLane="2" dir="s"/>
    <connection from="E_RIGHT_UP" to="E_UPPER_RIGHT_R" fromLane="0" toLane="0" dir="r"/>
    <connection from="E_RIGHT_UP" to="E_UPPER_RIGHT_R" fromLane="1" toLane="0" dir="r"/>
    <connection from="E_RIGHT_UP" to="E_UPPER_RIGHT_R" fromLane="2" toLane="0" dir="r"/>
    <connection from="E_RIGHT_MID_R" to="E_RIGHT_UP_R" fromLane="0" toLane="0" dir="s"/>
    <connection from="E_RIGHT_MID_R" to="E_RIGHT_UP_R" fromLane="1" toLane="1" dir="s"/>
    <connection from="E_RIGHT_MID_R" to="E_RIGHT_UP_R" fromLane="2" toLane="2" dir="s"/>
    <connection from="E_RIGHT_MID_R" to="E_RIGHT_MID" fromLane="0" toLane="2" dir="t"/>
    <connection from="E_RIGHT_MID_R" to="E_RIGHT_MID" fromLane="1" toLane="2" dir="t"/>
    <connection from="E_RIGHT_MID_R" to="E_RIGHT_MID" fromLane="2" toLane="2" dir="t"/>
    <connection from="E_RIGHT_MID_R" to="E_UPPER_RIGHT_R" fromLane="0" toLane="2" dir="l"/>
    <connection from="E_RIGHT_MID_R" to="E_UPPER_RIGHT_R" fromLane="1" toLane="2" dir="l"/>
    <connection from="E_RIGHT_MID_R" to="E_UPPER_RIGHT_R" fromLane="2" toLane="2" dir="l"/>
    <connection from="E_UPPER_RIGHT" to="E_RIGHT_UP_R" fromLane="0" toLane="2" dir="l"/>
    <connection from="E_UPPER_RIGHT" to="E_RIGHT_UP_R" fromLane="1" toLane="2" dir="l"/>
    <connection from="E_UPPER_RIGHT" to="E_RIGHT_UP_R" fromLane="2" toLane="2" dir="l"/>
    <connection from="E_UPPER_RIGHT" to="E_RIGHT_MID" fromLane="0" toLane="0" dir="r"/>
    <connection from="E_UPPER_RIGHT" to="E_RIGHT_MID" fromLane="1" toLane="0" dir="r"/>
    <connection from="E_UPPER_RIGHT" to="E_RIGHT_MID" fromLane="2" toLane="0" dir="r"/>
    <connection from="E_UPPER_RIGHT" to="E_UPPER_RIGHT_R" fromLane="0" toLane="2" dir="t"/>
    <connection from="E_UPPER_RIGHT" to="E_UPPER_RIGHT_R" fromLane="1" toLane="2" dir="t"/>
    <connection from="E_UPPER_RIGHT" to="E_UPPER_RIGHT_R" fromLane="2" toLane="2" dir="t"/>
    <connection from="E_RIGHT_MID" to="E_RIGHT_MID_R" fromLane="0" toLane="2" dir="t"/>
    <connection from="E_RIGHT_MID" to="E_RIGHT_MID_R" fromLane="1" toLane="2" dir="t"/>
    <connection from="E_RIGHT_MID" to="E_RIGHT_MID_R" fromLane="2" toLane="2" dir="t"/>
    <connection from="E_RIGHT_MID" to="E_RIGHT_LOW" fromLane="0" toLane="0" dir="s"/>
    <connection from="E_RIGHT_MID" to="E_RIGHT_LOW" fromLane="1" toLane="1" dir="s"/>
    <connection from="E_RIGHT_MID" to="E_RIGHT_LOW" fromLane="2" toLane="2" dir="s"/>
    <connection from="E_RIGHT_MID" to="E_LOWER_RIGHT_R" fromLane="0" toLane="0" dir="r"/>
    <connection from="E_RIGHT_MID" to="E_LOWER_RIGHT_R" fromLane="1" toLane="0" dir="r"/>
    <connection from="E_RIGHT_MID" to="E_LOWER_RIGHT_R" fromLane="2" toLane="0" dir="r"/>
    <connection from="E_RIGHT_LOW_R" to="E_RIGHT_MID_R" fromLane="0" toLane="0" dir="s"/>
    <connection from="E_RIGHT_LOW_R" to="E_RIGHT_MID_R" fromLane="1" toLane="1" dir="s"/>
    <connection from="E_RIGHT_LOW_R" to="E_RIGHT_MID_R" fromLane="2" toLane="2" dir="s"/>
    <connection from="E_RIGHT_LOW_R" to="E_RIGHT_LOW" fromLane="0" toLane="2" dir="t"/>
    <connection from="E_RIGHT_LOW_R" to="E_RIGHT_LOW" fromLane="1" toLane="2" dir="t"/>
    <connection from="E_RIGHT_LOW_R" to="E_RIGHT_LOW" fromLane="2" toLane="2" dir="t"/>
    <connection from="E_RIGHT_LOW_R" to="E_LOWER_RIGHT_R" fromLane="0" toLane="2" dir="l"/>
    <connection from="E_RIGHT_LOW_R" to="E_LOWER_RIGHT_R" fromLane="1" toLane="2" dir="l"/>
    <connection from="E_RIGHT_LOW_R" to="E_LOWER_RIGHT_R" fromLane="2" toLane="2" dir="l"/>
    <connection from="E_LOWER_RIGHT" to="E_RIGHT_MID_R" fromLane="0" toLane="2" dir="l"/>
    <connection from="E_LOWER_RIGHT" to="E_RIGHT_MID_R" fromLane="1" toLane="2" dir="l"/>
    <connection from="E_LOWER_RIGHT" to="E_RIGHT_MID_R" fromLane="2" toLane="2" dir="l"/>
    <connection from="E_LOWER_RIGHT" to="E_RIGHT_LOW" fromLane="0" toLane="0" dir="r"/>
    <connection from="E_LOWER_RIGHT" to="E_RIGHT_LOW" fromLane="1" toLane="0" dir="r"/>
    <connection from="E_LOWER_RIGHT" to="E_RIGHT_LOW" fromLane="2" toLane="0" dir="r"/>
    <connection from="E_LOWER_RIGHT" to="E_LOWER_RIGHT_R" fromLane="0" toLane="2" dir="t"/>
    <connection from="E_LOWER_RIGHT" to="E_LOWER_RIGHT_R" fromLane="1" toLane="2" dir="t"/>
    <connection from="E_LOWER_RIGHT" to="E_LOWER_RIGHT_R" fromLane="2" toLane="2" dir="t"/>
    <connection from="E_CENTER_TOP" to="E_CENTER_TOP_R" fromLane="0" toLane="2" dir="t"/>
    <connection from="E_CENTER_TOP" to="E_CENTER_TOP_R" fromLane="1" toLane="2" dir="t"/>
    <connection from="E_CENTER_TOP" to="E_CENTER_TOP_R" fromLane="2" toLane="2" dir="t"/>
    <connection from="E_CENTER_TOP" to="E_CENTER_MID" fromLane="0" toLane="0" dir="s"/>
    <connection from="E_CENTER_TOP" to="E_CENTER_MID" fromLane="1" toLane="1" dir="s"/>
    <connection from="E_CENTER_TOP" to="E_CENTER_MID" fromLane="2" toLane="2" dir="s"/>
    <connection from="E_CENTER_TOP" to="E_UPPER_LEFT_R" fromLane="0" toLane="0" dir="r"/>
    <connection from="E_CENTER_TOP" to="E_UPPER_LEFT_R" fromLane="1" toLane="0" dir="r"/>
    <connection from="E_CENTER_TOP" to="E_UPPER_LEFT_R" fromLane="2" toLane="0" dir="r"/>
    <connection from="E_CENTER_TOP" to="E_UPPER_RIGHT" fromLane="0" toLane="2" dir="l"/>
    <connection from="E_CENTER_TOP" to="E_UPPER_RIGHT" fromLane="1" toLane="2" dir="l"/>
    <connection from="E_CENTER_TOP" to="E_UPPER_RIGHT" fromLane="2" toLane="2" dir="l"/>
    <connection from="E_CENTER_MID_R" to="E_CENTER_TOP_R" fromLane="0" toLane="0" dir="s"/>
    <connection from="E_CENTER_MID_R" to="E_CENTER_TOP_R" fromLane="1" toLane="1" dir="s"/>
    <connection from="E_CENTER_MID_R" to="E_CENTER_TOP_R" fromLane="2" toLane="2" dir="s"/>
    <connection from="E_CENTER_MID_R" to="E_CENTER_MID" fromLane="0" toLane="2" dir="t"/>
    <connection from="E_CENTER_MID_R" to="E_CENTER_MID" fromLane="1" toLane="2" dir="t"/>
    <connection from="E_CENTER_MID_R" to="E_CENTER_MID" fromLane="2" toLane="2" dir="t"/>
    <connection from="E_CENTER_MID_R" to="E_UPPER_LEFT_R" fromLane="0" toLane="2" dir="l"/>
    <connection from="E_CENTER_MID_R" to="E_UPPER_LEFT_R" fromLane="1" toLane="2" dir="l"/>
    <connection from="E_CENTER_MID_R" to="E_UPPER_LEFT_R" fromLane="2" toLane="2" dir="l"/>
    <connection from="E_CENTER_MID_R" to="E_UPPER_RIGHT" fromLane="0" toLane="0" dir="r"/>
    <connection from="E_CENTER_MID_R" to="E_UPPER_RIGHT" fromLane="1" toLane="0" dir="r"/>
    <connection from="E_CENTER_MID_R" to="E_UPPER_RIGHT" fromLane="2" toLane="0" dir="r"/>
    <connection from="E_UPPER_LEFT" to="E_CENTER_TOP_R" fromLane="0" toLane="2" dir="l"/>
    <connection from="E_UPPER_LEFT" to="E_CENTER_TOP_R" fromLane="1" toLane="2" dir="l"/>
    <connection from="E_UPPER_LEFT" to="E_CENTER_TOP_R" fromLane="2" toLane="2" dir="l"/>
    <connection from="E_UPPER_LEFT" to="E_CENTER_MID" fromLane="0" toLane="0" dir="r"/>
    <connection from="E_UPPER_LEFT" to="E_CENTER_MID" fromLane="1" toLane="0" dir="r"/>
    <connection from="E_UPPER_LEFT" to="E_CENTER_MID" fromLane="2" toLane="0" dir="r"/>
    <connection from="E_UPPER_LEFT" to="E_UPPER_LEFT_R" fromLane="0" toLane="2" dir="t"/>
    <connection from="E_UPPER_LEFT" to="E_UPPER_LEFT_R" fromLane="1" toLane="2" dir="t"/>
    <connection from="E_UPPER_LEFT" to="E_UPPER_LEFT_R" fromLane="2" toLane="2" dir="t"/>
    <connection from="E_UPPER_LEFT" to="E_UPPER_RIGHT" fromLane="0" toLane="0" dir="s"/>
    <connection from="E_UPPER_LEFT" to="E_UPPER_RIGHT" fromLane="1" toLane="1" dir="s"/>
    <connection from="E_UPPER_LEFT" to="E_UPPER_RIGHT" fromLane="2" toLane="2" dir="s"/>
    <connection from="E_UPPER_RIGHT_R" to="E_CENTER_TOP_R" fromLane="0" toLane="0" dir="r"/>
    <connection from="E_UPPER_RIGHT_R" to="E_CENTER_TOP_R" fromLane="1" toLane="0" dir="r"/>
    <connection from="E_UPPER_RIGHT_R" to="E_CENTER_TOP_R" fromLane="2" toLane="0" dir="r"/>
    <connection from="E_UPPER_RIGHT_R" to="E_CENTER_MID" fromLane="0" toLane="2" dir="l"/>
    <connection from="E_UPPER_RIGHT_R" to="E_CENTER_MID" fromLane="1" toLane="2" dir="l"/>
    <connection from="E_UPPER_RIGHT_R" to="E_CENTER_MID" fromLane="2" toLane="2" dir="l"/>
    <connection from="E_UPPER_RIGHT_R" to="E_UPPER_LEFT_R" fromLane="0" toLane="0" dir="s"/>
    <connection from="E_UPPER_RIGHT_R" to="E_UPPER_LEFT_R" fromLane="1" toLane="1" dir="s"/>
    <connection from="E_UPPER_RIGHT_R" to="E_UPPER_LEFT_R" fromLane="2" toLane="2" dir="s"/>
    <connection from="E_UPPER_RIGHT_R" to="E_UPPER_RIGHT" fromLane="0" toLane="2" dir="t"/>
    <connection from="E_UPPER_RIGHT_R" to="E_UPPER_RIGHT" fromLane="1" toLane="2" dir="t"/>
    <connection from="E_UPPER_RIGHT_R" to="E_UPPER_RIGHT" fromLane="2" toLane="2" dir="t"/>
    <connection from="E_CENTER_MID" to="E_CENTER_MID_R" fromLane="0" toLane="2" dir="t"/>
    <connection from="E_CENTER_MID" to="E_CENTER_MID_R" fromLane="1" toLane="2" dir="t"/>
    <connection from="E_CENTER_MID" to="E_CENTER_MID_R" fromLane="2" toLane="2" dir="t"/>
    <connection from="E_CENTER_MID" to="E_CENTER_LOW" fromLane="0" toLane="0" dir="s"/>
    <connection from="E_CENTER_MID" to="E_CENTER_LOW" fromLane="1" toLane="1" dir="s"/>
    <connection from="E_CENTER_MID" to="E_CENTER_LOW" fromLane="2" toLane="2" dir="s"/>
    <connection from="E_CENTER_MID" to="E_LOWER_LEFT_R" fromLane="0" toLane="0" dir="r"/>
    <connection from="E_CENTER_MID" to="E_LOWER_LEFT_R" fromLane="1" toLane="0" dir="r"/>
    <connection from="E_CENTER_MID" to="E_LOWER_LEFT_R" fromLane="2" toLane="0" dir="r"/>
    <connection from="E_CENTER_MID" to="E_LOWER_RIGHT" fromLane="0" toLane="2" dir="l"/>
    <connection from="E_CENTER_MID" to="E_LOWER_RIGHT" fromLane="1" toLane="2" dir="l"/>
    <connection from="E_CENTER_MID" to="E_LOWER_RIGHT" fromLane="2" toLane="2" dir="l"/>
    <connection from="E_CENTER_LOW_R" to="E_CENTER_MID_R" fromLane="0" toLane="0" dir="s"/>
    <connection from="E_CENTER_LOW_R" to="E_CENTER_MID_R" fromLane="1" toLane="1" dir="s"/>
    <connection from="E_CENTER_LOW_R" to="E_CENTER_MID_R" fromLane="2" toLane="2" dir="s"/>
    <connection from="E_CENTER_LOW_R" to="E_CENTER_LOW" fromLane="0" toLane="2" dir="t"/>
    <connection from="E_CENTER_LOW_R" to="E_CENTER_LOW" fromLane="1" toLane="2" dir="t"/>
    <connection from="E_CENTER_LOW_R" to="E_CENTER_LOW" fromLane="2" toLane="2" dir="t"/>
    <connection from="E_CENTER_LOW_R" to="E_LOWER_LEFT_R" fromLane="0" toLane="2" dir="l"/>
    <connection from="E_CENTER_LOW_R" to="E_LOWER_LEFT_R" fromLane="1" toLane="2" dir="l"/>
    <connection from="E_CENTER_LOW_R" to="E_LOWER_LEFT_R" fromLane="2" toLane="2" dir="l"/>
    <connection from="E_CENTER_LOW_R" to="E_LOWER_RIGHT" fromLane="0" toLane="0" dir="r"/>
    <connection from="E_CENTER_LOW_R" to="E_LOWER_RIGHT" fromLane="1" toLane="0" dir="r"/>
    <connection from="E_CENTER_LOW_R" to="E_LOWER_RIGHT" fromLane="2" toLane="0" dir="r"/>
    <connection from="E_LOWER_LEFT" to="E_CENTER_MID_R" fromLane="0" toLane="2" dir="l"/>
    <connection from="E_LOWER_LEFT" to="E_CENTER_MID_R" fromLane="1" toLane="2" dir="l"/>
    <connection from="E_LOWER_LEFT" to="E_CENTER_MID_R" fromLane="2" toLane="2" dir="l"/>
    <connection from="E_LOWER_LEFT" to="E_CENTER_LOW" fromLane="0" toLane="0" dir="r"/>
    <connection from="E_LOWER_LEFT" to="E_CENTER_LOW" fromLane="1" toLane="0" dir="r"/>
    <connection from="E_LOWER_LEFT" to="E_CENTER_LOW" fromLane="2" toLane="0" dir="r"/>
    <connection from="E_LOWER_LEFT" to="E_LOWER_LEFT_R" fromLane="0" toLane="2" dir="t"/>
    <connection from="E_LOWER_LEFT" to="E_LOWER_LEFT_R" fromLane="1" toLane="2" dir="t"/>
    <connection from="E_LOWER_LEFT" to="E_LOWER_LEFT_R" fromLane="2" toLane="2" dir="t"/>
    <connection from="E_LOWER_LEFT" to="E_LOWER_RIGHT" fromLane="0" toLane="0" dir="s"/>
    <connection from="E_LOWER_LEFT" to="E_LOWER_RIGHT" fromLane="1" toLane="1" dir="s"/>
    <connection from="E_LOWER_LEFT" to="E_LOWER_RIGHT" fromLane="2" toLane="2" dir="s"/>
    <connection from="E_LOWER_RIGHT_R" to="E_CENTER_MID_R" fromLane="0" toLane="0" dir="r"/>
    <connection from="E_LOWER_RIGHT_R" to="E_CENTER_MID_R" fromLane="1" toLane="0" dir="r"/>
    <connection from="E_LOWER_RIGHT_R" to="E_CENTER_MID_R" fromLane="2" toLane="0" dir="r"/>
    <connection from="E_LOWER_RIGHT_R" to="E_CENTER_LOW" fromLane="0" toLane="2" dir="l"/>
    <connection from="E_LOWER_RIGHT_R" to="E_CENTER_LOW" fromLane="1" toLane="2" dir="l"/>
    <connection from="E_LOWER_RIGHT_R" to="E_CENTER_LOW" fromLane="2" toLane="2" dir="l"/>
    <connection from="E_LOWER_RIGHT_R" to="E_LOWER_LEFT_R" fromLane="0" toLane="0" dir="s"/>
    <connection from="E_LOWER_RIGHT_R" to="E_LOWER_LEFT_R" fromLane="1" toLane="1" dir="s"/>
    <connection from="E_LOWER_RIGHT_R" to="E_LOWER_LEFT_R" fromLane="2" toLane="2" dir="s"/>
    <connection from="E_LOWER_RIGHT_R" to="E_LOWER_RIGHT" fromLane="0" toLane="2" dir="t"/>
    <connection from="E_LOWER_RIGHT_R" to="E_LOWER_RIGHT" fromLane="1" toLane="2" dir="t"/>
    <connection from="E_LOWER_RIGHT_R" to="E_LOWER_RIGHT" fromLane="2" toLane="2" dir="t"/>
</connections>