<?xml version="1.0" encoding="UTF-8"?>

<!-- generated on 2025-11-04 14:55:28 by Eclipse SUMO netconvert Version 1.23.1
<netconvertConfiguration xmlns:xsi="http://www.w3.org/2001/XMLSchema-instance" xsi:noNamespaceSchemaLocation="http://sumo.dlr.de/xsd/netconvertConfiguration.xsd">

    <input>
        <node-files value="contrib/high-way-cluster/grid_network/grid.nod.xml"/>
        <edge-files value="contrib/high-way-cluster/grid_network/grid.edg.xml"/>
        <connection-files value="contrib/high-way-cluster/grid_network/grid.con.xml"/>
        <type-files value="contrib/high-way-cluster/grid_network/grid.typ.xml"/>
    </input>

    <output>
        <output-file value="contrib/high-way-cluster/grid_network/grid.net.xml"/>
    </output>

    <junctions>
        <junctions.corner-detail value="2"/>
        <junctions.limit-turn-speed value="8"/>
    </junctions>

</netconvertConfiguration>
-->

<net version="1.20" junctionCornerDetail="2" limitTurnSpeed="8.00" xmlns:xsi="http://www.w3.org/2001/XMLSchema-instance" xsi:noNamespaceSchemaLocation="http://sumo.dlr.de/xsd/net_file.xsd">

    <location netOffset="0.00,0.00" convBoundary="0.00,0.00,2000.00,2000.00" origBoundary="0.00,0.00,2000.00,2000.00" projParameter="!"/>

    <type id="square_main" priority="9" numLanes="3" speed="16.67" width="3.75"/>

    <edge id=":BOTTOM_CENTER_0" function="internal">
        <lane id=":BOTTOM_CENTER_0_0" index="0" speed="8.09" length="9.47" width="3.75" shape="990.62,15.25 990.26,12.68 989.16,10.84 987.32,9.74 984.75,9.38"/>
    </edge>
    <edge id=":BOTTOM_CENTER_1" function="internal">
        <lane id=":BOTTOM_CENTER_1_0" index="0" speed="14.65" length="33.88" width="3.75" shape="990.62,15.25 992.16,7.76 996.78,2.41 1004.48,-0.80 1015.25,-1.88"/>
    </edge>
    <edge id=":BOTTOM_CENTER_2" function="internal">
        <lane id=":BOTTOM_CENTER_2_0" index="0" speed="7.29" length="16.43" width="3.75" shape="990.62,15.25 993.44,11.03 996.25,9.62 999.06,11.03 1001.88,15.25"/>
    </edge>
    <edge id=":BOTTOM_CENTER_3" function="internal">
        <lane id=":BOTTOM_CENTER_3_0" index="0" speed="9.21" length="12.64" width="3.75" shape="994.38,15.25 993.77,12.68 991.97,10.84 988.96,9.74 984.75,9.38"/>
    </edge>
    <edge id=":BOTTOM_CENTER_4" function="internal">
        <lane id=":BOTTOM_CENTER_4_0" index="0" speed="13.97" length="30.70" width="3.75" shape="994.38,15.25 995.68,7.76 999.59,2.41 1006.12,-0.80 1015.25,-1.88"/>
    </edge>
    <edge id=":BOTTOM_CENTER_5" function="internal">
        <lane id=":BOTTOM_CENTER_5_0" index="0" speed="6.16" length="10.95" width="3.75" shape="994.38,15.25 996.25,12.44 998.12,11.50 1000.00,12.44 1001.88,15.25"/>
    </edge>
    <edge id=":BOTTOM_CENTER_6" function="internal">
        <lane id=":BOTTOM_CENTER_6_0" index="0" speed="10.26" length="16.00" width="3.75" shape="998.12,15.25 997.29,12.68 994.78,10.84 990.60,9.74 984.75,9.38"/>
    </edge>
    <edge id=":BOTTOM_CENTER_7" function="internal">
        <lane id=":BOTTOM_CENTER_7_0" index="0" speed="13.28" length="27.62" width="3.75" shape="998.12,15.25 999.20,7.76 1002.41,2.41 1007.76,-0.80 1015.25,-1.88"/>
    </edge>
    <edge id=":BOTTOM_CENTER_8" function="internal">
        <lane id=":BOTTOM_CENTER_8_0" index="0" speed="4.77" length="5.48" width="3.75" shape="998.12,15.25 999.06,13.84 1000.00,13.37 1000.94,13.84 1001.88,15.25"/>
    </edge>
    <edge id=":BOTTOM_CENTER_9" function="internal">
        <lane id=":BOTTOM_CENTER_9_0" index="0" speed="8.09" length="9.47" width="3.75" shape="1015.25,9.38 1012.68,9.74 1010.84,10.84 1009.74,12.68 1009.38,15.25"/>
    </edge>
    <edge id=":BOTTOM_CENTER_10" function="internal">
        <lane id=":BOTTOM_CENTER_10_0" index="0" speed="16.67" length="30.50" width="3.75" shape="1015.25,9.38 984.75,9.38"/>
    </edge>
    <edge id=":BOTTOM_CENTER_11" function="internal">
        <lane id=":BOTTOM_CENTER_11_0" index="0" speed="7.29" length="12.54" width="3.75" shape="1015.25,9.38 1011.03,6.56 1009.62,3.75 1011.03,0.94 1012.02,0.28"/>
    </edge>
    <edge id=":BOTTOM_CENTER_12" function="internal">
        <lane id=":BOTTOM_CENTER_12_0" index="0" speed="9.21" length="3.04" width="3.75" shape="1015.25,5.62 1012.68,6.23 1012.40,6.50"/>
    </edge>
    <edge id=":BOTTOM_CENTER_13" function="internal">
        <lane id=":BOTTOM_CENTER_13_0" index="0" speed="16.67" length="30.50" width="3.75" shape="1015.25,5.62 984.75,5.62"/>
    </edge>
    <edge id=":BOTTOM_CENTER_14" function="internal">
        <lane id=":BOTTOM_CENTER_14_0" index="0" speed="6.16" length="7.07" width="3.75" shape="1015.25,5.62 1012.44,3.75 1011.50,1.88 1012.21,0.45"/>
    </edge>
    <edge id=":BOTTOM_CENTER_15" function="internal">
        <lane id=":BOTTOM_CENTER_15_0" index="0" speed="10.26" length="2.70" width="3.75" shape="1015.25,1.88 1012.68,2.71"/>
    </edge>
    <edge id=":BOTTOM_CENTER_16" function="internal">
        <lane id=":BOTTOM_CENTER_16_0" index="0" speed="16.67" length="30.50" width="3.75" shape="1015.25,1.88 984.75,1.88"/>
    </edge>
    <edge id=":BOTTOM_CENTER_17" function="internal">
        <lane id=":BOTTOM_CENTER_17_0" index="0" speed="4.77" length="1.81" width="3.75" shape="1015.25,1.88 1013.84,0.94 1013.79,0.83"/>
    </edge>
    <edge id=":BOTTOM_CENTER_27" function="internal">
        <lane id=":BOTTOM_CENTER_27_0" index="0" speed="7.29" length="3.89" width="3.75" shape="1012.02,0.28 1015.25,-1.88"/>
    </edge>
    <edge id=":BOTTOM_CENTER_28" function="internal">
        <lane id=":BOTTOM_CENTER_28_0" index="0" speed="9.21" length="9.61" width="3.75" shape="1012.40,6.50 1010.84,8.03 1009.74,11.04 1009.38,15.25"/>
    </edge>
    <edge id=":BOTTOM_CENTER_29" function="internal">
        <lane id=":BOTTOM_CENTER_29_0" index="0" speed="6.16" length="3.89" width="3.75" shape="1012.21,0.45 1012.44,0.00 1015.25,-1.88"/>
    </edge>
    <edge id=":BOTTOM_CENTER_30" function="internal">
        <lane id=":BOTTOM_CENTER_30_0" index="0" speed="10.26" length="13.29" width="3.75" shape="1012.68,2.71 1010.84,5.22 1009.74,9.40 1009.38,15.25"/>
    </edge>
    <edge id=":BOTTOM_CENTER_31" function="internal">
        <lane id=":BOTTOM_CENTER_31_0" index="0" speed="4.77" length="3.67" width="3.75" shape="1013.79,0.83 1013.38,0.00 1013.84,-0.94 1015.25,-1.88"/>
    </edge>
    <edge id=":BOTTOM_CENTER_18" function="internal">
        <lane id=":BOTTOM_CENTER_18_0" index="0" speed="16.67" length="30.50" width="3.75" shape="984.75,-9.38 1015.25,-9.38"/>
    </edge>
    <edge id=":BOTTOM_CENTER_19" function="internal">
        <lane id=":BOTTOM_CENTER_19_0" index="0" speed="14.65" length="16.94" width="3.75" shape="984.75,-9.38 992.24,-7.84 997.59,-3.22 998.45,-1.17"/>
    </edge>
    <edge id=":BOTTOM_CENTER_20" function="internal">
        <lane id=":BOTTOM_CENTER_20_0" index="0" speed="7.29" length="12.54" width="3.75" shape="984.75,-9.38 988.97,-6.56 990.38,-3.75 988.97,-0.94 987.98,-0.28"/>
    </edge>
    <edge id=":BOTTOM_CENTER_21" function="internal">
        <lane id=":BOTTOM_CENTER_21_0" index="0" speed="16.67" length="30.50" width="3.75" shape="984.75,-5.62 1015.25,-5.62"/>
    </edge>
    <edge id=":BOTTOM_CENTER_22" function="internal">
        <lane id=":BOTTOM_CENTER_22_0" index="0" speed="13.97" length="13.27" width="3.75" shape="984.75,-5.62 992.24,-4.32 996.82,-0.97"/>
    </edge>
    <edge id=":BOTTOM_CENTER_23" function="internal">
        <lane id=":BOTTOM_CENTER_23_0" index="0" speed="6.16" length="7.07" width="3.75" shape="984.75,-5.62 987.56,-3.75 988.50,-1.88 987.79,-0.45"/>
    </edge>
    <edge id=":BOTTOM_CENTER_24" function="internal">
        <lane id=":BOTTOM_CENTER_24_0" index="0" speed="16.67" length="30.50" width="3.75" shape="984.75,-1.88 1015.25,-1.88"/>
    </edge>
    <edge id=":BOTTOM_CENTER_25" function="internal">
        <lane id=":BOTTOM_CENTER_25_0" index="0" speed="13.28" length="6.96" width="3.75" shape="984.75,-1.88 991.64,-0.89"/>
    </edge>
    <edge id=":BOTTOM_CENTER_26" function="internal">
        <lane id=":BOTTOM_CENTER_26_0" index="0" speed="4.77" length="1.81" width="3.75" shape="984.75,-1.88 986.16,-0.94 986.21,-0.83"/>
    </edge>
    <edge id=":BOTTOM_CENTER_32" function="internal">
        <lane id=":BOTTOM_CENTER_32_0" index="0" speed="14.65" length="16.95" width="3.75" shape="998.45,-1.17 1000.80,4.48 1001.88,15.25"/>
    </edge>
    <edge id=":BOTTOM_CENTER_33" function="internal">
        <lane id=":BOTTOM_CENTER_33_0" index="0" speed="7.29" length="3.89" width="3.75" shape="987.98,-0.28 984.75,1.88"/>
    </edge>
    <edge id=":BOTTOM_CENTER_34" function="internal">
        <lane id=":BOTTOM_CENTER_34_0" index="0" speed="13.97" length="17.43" width="3.75" shape="996.82,-0.97 997.59,-0.41 1000.80,6.12 1001.88,15.25"/>
    </edge>
    <edge id=":BOTTOM_CENTER_35" function="internal">
        <lane id=":BOTTOM_CENTER_35_0" index="0" speed="6.16" length="3.89" width="3.75" shape="987.79,-0.45 987.56,0.00 984.75,1.88"/>
    </edge>
    <edge id=":BOTTOM_CENTER_36" function="internal">
        <lane id=":BOTTOM_CENTER_36_0" index="0" speed="13.28" length="20.66" width="3.75" shape="991.64,-0.89 992.24,-0.80 997.59,2.41 1000.80,7.76 1001.88,15.25"/>
    </edge>
    <edge id=":BOTTOM_CENTER_37" function="internal">
        <lane id=":BOTTOM_CENTER_37_0" index="0" speed="4.77" length="3.67" width="3.75" shape="986.21,-0.83 986.62,0.00 986.16,0.94 984.75,1.88"/>
    </edge>
    <edge id=":BOTTOM_LEFT_0" function="internal">
        <lane id=":BOTTOM_LEFT_0_0" index="0" speed="13.25" length="27.48" width="3.75" shape="-9.38,11.25 -8.09,5.51 -4.22,1.41 2.23,-1.05 11.25,-1.88"/>
    </edge>
    <edge id=":BOTTOM_LEFT_1" function="internal">
        <lane id=":BOTTOM_LEFT_1_0" index="0" speed="7.29" length="8.21" width="3.75" shape="-9.38,11.25 -6.56,7.03 -3.75,5.62"/>
    </edge>
    <edge id=":BOTTOM_LEFT_2" function="internal">
        <lane id=":BOTTOM_LEFT_2_0" index="0" speed="12.48" length="24.27" width="3.75" shape="-5.62,11.25 -4.57,5.51 -1.41,1.41 3.87,-1.05 11.25,-1.88"/>
    </edge>
    <edge id=":BOTTOM_LEFT_3" function="internal">
        <lane id=":BOTTOM_LEFT_3_0" index="0" speed="6.16" length="5.48" width="3.75" shape="-5.62,11.25 -3.75,8.44 -1.88,7.50"/>
    </edge>
    <edge id=":BOTTOM_LEFT_4" function="internal">
        <lane id=":BOTTOM_LEFT_4_0" index="0" speed="11.70" length="21.17" width="3.75" shape="-1.88,11.25 -1.05,5.51 1.41,1.41 5.51,-1.05 11.25,-1.88"/>
    </edge>
    <edge id=":BOTTOM_LEFT_5" function="internal">
        <lane id=":BOTTOM_LEFT_5_0" index="0" speed="4.77" length="2.74" width="3.75" shape="-1.88,11.25 -0.94,9.84 0.00,9.38"/>
    </edge>
    <edge id=":BOTTOM_LEFT_12" function="internal">
        <lane id=":BOTTOM_LEFT_12_0" index="0" speed="7.29" length="8.21" width="3.75" shape="-3.75,5.62 -0.94,7.03 1.88,11.25"/>
    </edge>
    <edge id=":BOTTOM_LEFT_13" function="internal">
        <lane id=":BOTTOM_LEFT_13_0" index="0" speed="6.16" length="5.48" width="3.75" shape="-1.88,7.50 0.00,8.44 1.88,11.25"/>
    </edge>
    <edge id=":BOTTOM_LEFT_14" function="internal">
        <lane id=":BOTTOM_LEFT_14_0" index="0" speed="4.77" length="2.74" width="3.75" shape="0.00,9.38 0.94,9.84 1.88,11.25"/>
    </edge>
    <edge id=":BOTTOM_LEFT_6" function="internal">
        <lane id=":BOTTOM_LEFT_6_0" index="0" speed="5.10" length="3.02" width="3.75" shape="11.25,9.38 10.43,9.49 9.84,9.84 9.49,10.43 9.38,11.25"/>
    </edge>
    <edge id=":BOTTOM_LEFT_7" function="internal">
        <lane id=":BOTTOM_LEFT_7_0" index="0" speed="7.29" length="12.11" width="3.75" shape="11.25,9.38 7.03,6.56 5.62,3.75 7.03,0.94 7.66,0.52"/>
    </edge>
    <edge id=":BOTTOM_LEFT_8" function="internal">
        <lane id=":BOTTOM_LEFT_8_0" index="0" speed="6.81" length="6.36" width="3.75" shape="11.25,5.62 10.43,5.98 9.84,7.03 9.49,8.79 9.38,11.25"/>
    </edge>
    <edge id=":BOTTOM_LEFT_9" function="internal">
        <lane id=":BOTTOM_LEFT_9_0" index="0" speed="6.16" length="6.63" width="3.75" shape="11.25,5.62 8.44,3.75 7.50,1.88 8.02,0.84"/>
    </edge>
    <edge id=":BOTTOM_LEFT_10" function="internal">
        <lane id=":BOTTOM_LEFT_10_0" index="0" speed="8.25" length="9.91" width="3.75" shape="11.25,1.88 10.43,2.46 9.84,4.22 9.49,7.15 9.38,11.25"/>
    </edge>
    <edge id=":BOTTOM_LEFT_11" function="internal">
        <lane id=":BOTTOM_LEFT_11_0" index="0" speed="4.77" length="1.69" width="3.75" shape="11.25,1.88 9.84,0.94"/>
    </edge>
    <edge id=":BOTTOM_LEFT_15" function="internal">
        <lane id=":BOTTOM_LEFT_15_0" index="0" speed="7.29" length="4.32" width="3.75" shape="7.66,0.52 11.25,-1.88"/>
    </edge>
    <edge id=":BOTTOM_LEFT_16" function="internal">
        <lane id=":BOTTOM_LEFT_16_0" index="0" speed="6.16" length="4.32" width="3.75" shape="8.02,0.84 8.44,0.00 11.25,-1.88"/>
    </edge>
    <edge id=":BOTTOM_LEFT_17" function="internal">
        <lane id=":BOTTOM_LEFT_17_0" index="0" speed="4.77" length="3.79" width="3.75" shape="9.84,0.94 9.38,0.00 9.84,-0.94 11.25,-1.88"/>
    </edge>
    <edge id=":BOTTOM_RIGHT_0" function="internal">
        <lane id=":BOTTOM_RIGHT_0_0" index="0" speed="5.10" length="3.02" width="3.75" shape="1990.62,11.25 1990.51,10.43 1990.16,9.84 1989.57,9.49 1988.75,9.38"/>
    </edge>
    <edge id=":BOTTOM_RIGHT_1" function="internal">
        <lane id=":BOTTOM_RIGHT_1_0" index="0" speed="7.29" length="12.11" width="3.75" shape="1990.62,11.25 1993.44,7.03 1996.25,5.62 1999.06,7.03 1999.48,7.66"/>
    </edge>
    <edge id=":BOTTOM_RIGHT_2" function="internal">
        <lane id=":BOTTOM_RIGHT_2_0" index="0" speed="6.81" length="6.36" width="3.75" shape="1994.38,11.25 1994.02,10.43 1992.97,9.84 1991.21,9.49 1988.75,9.38"/>
    </edge>
    <edge id=":BOTTOM_RIGHT_3" function="internal">
        <lane id=":BOTTOM_RIGHT_3_0" index="0" speed="6.16" length="6.63" width="3.75" shape="1994.38,11.25 1996.25,8.44 1998.12,7.50 1999.16,8.02"/>
    </edge>
    <edge id=":BOTTOM_RIGHT_4" function="internal">
        <lane id=":BOTTOM_RIGHT_4_0" index="0" speed="8.25" length="9.91" width="3.75" shape="1998.12,11.25 1997.54,10.43 1995.78,9.84 1992.85,9.49 1988.75,9.38"/>
    </edge>
    <edge id=":BOTTOM_RIGHT_5" function="internal">
        <lane id=":BOTTOM_RIGHT_5_0" index="0" speed="4.77" length="1.69" width="3.75" shape="1998.12,11.25 1999.06,9.84"/>
    </edge>
    <edge id=":BOTTOM_RIGHT_12" function="internal">
        <lane id=":BOTTOM_RIGHT_12_0" index="0" speed="7.29" length="4.32" width="3.75" shape="1999.48,7.66 2001.88,11.25"/>
    </edge>
    <edge id=":BOTTOM_RIGHT_13" function="internal">
        <lane id=":BOTTOM_RIGHT_13_0" index="0" speed="6.16" length="4.32" width="3.75" shape="1999.16,8.02 2000.00,8.44 2001.88,11.25"/>
    </edge>
    <edge id=":BOTTOM_RIGHT_14" function="internal">
        <lane id=":BOTTOM_RIGHT_14_0" index="0" speed="4.77" length="3.79" width="3.75" shape="1999.06,9.84 2000.00,9.38 2000.94,9.84 2001.88,11.25"/>
    </edge>
    <edge id=":BOTTOM_RIGHT_6" function="internal">
        <lane id=":BOTTOM_RIGHT_6_0" index="0" speed="13.25" length="27.48" width="3.75" shape="1988.75,-9.38 1994.49,-8.09 1998.59,-4.22 2001.05,2.23 2001.88,11.25"/>
    </edge>
    <edge id=":BOTTOM_RIGHT_7" function="internal">
        <lane id=":BOTTOM_RIGHT_7_0" index="0" speed="7.29" length="8.21" width="3.75" shape="1988.75,-9.38 1992.97,-6.56 1994.38,-3.75"/>
    </edge>
    <edge id=":BOTTOM_RIGHT_8" function="internal">
        <lane id=":BOTTOM_RIGHT_8_0" index="0" speed="12.48" length="24.27" width="3.75" shape="1988.75,-5.62 1994.49,-4.57 1998.59,-1.41 2001.05,3.87 2001.88,11.25"/>
    </edge>
    <edge id=":BOTTOM_RIGHT_9" function="internal">
        <lane id=":BOTTOM_RIGHT_9_0" index="0" speed="6.16" length="5.48" width="3.75" shape="1988.75,-5.62 1991.56,-3.75 1992.50,-1.88"/>
    </edge>
    <edge id=":BOTTOM_RIGHT_10" function="internal">
        <lane id=":BOTTOM_RIGHT_10_0" index="0" speed="11.70" length="21.17" width="3.75" shape="1988.75,-1.88 1994.49,-1.05 1998.59,1.41 2001.05,5.51 2001.88,11.25"/>
    </edge>
    <edge id=":BOTTOM_RIGHT_11" function="internal">
        <lane id=":BOTTOM_RIGHT_11_0" index="0" speed="4.77" length="2.74" width="3.75" shape="1988.75,-1.88 1990.16,-0.94 1990.62,0.00"/>
    </edge>
    <edge id=":BOTTOM_RIGHT_15" function="internal">
        <lane id=":BOTTOM_RIGHT_15_0" index="0" speed="7.29" length="8.21" width="3.75" shape="1994.38,-3.75 1992.97,-0.94 1988.75,1.88"/>
    </edge>
    <edge id=":BOTTOM_RIGHT_16" function="internal">
        <lane id=":BOTTOM_RIGHT_16_0" index="0" speed="6.16" length="5.48" width="3.75" shape="1992.50,-1.88 1991.56,0.00 1988.75,1.88"/>
    </edge>
    <edge id=":BOTTOM_RIGHT_17" function="internal">
        <lane id=":BOTTOM_RIGHT_17_0" index="0" speed="4.77" length="2.74" width="3.75" shape="1990.62,0.00 1990.16,0.94 1988.75,1.88"/>
    </edge>
    <edge id=":CENTER_LOWER_0" function="internal">
        <lane id=":CENTER_LOWER_0_0" index="0" speed="8.09" length="9.47" width="3.75" shape="990.62,681.92 990.26,679.35 989.16,677.51 987.32,676.41 984.75,676.04"/>
    </edge>
    <edge id=":CENTER_LOWER_1" function="internal">
        <lane id=":CENTER_LOWER_1_0" index="0" speed="16.67" length="30.50" width="3.75" shape="990.62,681.92 990.62,651.42"/>
    </edge>
    <edge id=":CENTER_LOWER_2" function="internal">
        <lane id=":CENTER_LOWER_2_0" index="0" speed="14.65" length="16.94" width="3.75" shape="990.62,681.92 992.16,674.43 996.78,669.08 998.83,668.22"/>
    </edge>
    <edge id=":CENTER_LOWER_3" function="internal">
        <lane id=":CENTER_LOWER_3_0" index="0" speed="7.29" length="12.54" width="3.75" shape="990.62,681.92 993.44,677.70 996.25,676.29 999.06,677.70 999.72,678.69"/>
    </edge>
    <edge id=":CENTER_LOWER_4" function="internal">
        <lane id=":CENTER_LOWER_4_0" index="0" speed="9.21" length="3.04" width="3.75" shape="994.38,681.92 993.77,679.35 993.50,679.07"/>
    </edge>
    <edge id=":CENTER_LOWER_5" function="internal">
        <lane id=":CENTER_LOWER_5_0" index="0" speed="16.67" length="30.50" width="3.75" shape="994.38,681.92 994.38,651.42"/>
    </edge>
    <edge id=":CENTER_LOWER_6" function="internal">
        <lane id=":CENTER_LOWER_6_0" index="0" speed="13.97" length="13.27" width="3.75" shape="994.38,681.92 995.68,674.43 999.03,669.85"/>
    </edge>
    <edge id=":CENTER_LOWER_7" function="internal">
        <lane id=":CENTER_LOWER_7_0" index="0" speed="6.16" length="7.07" width="3.75" shape="994.38,681.92 996.25,679.11 998.12,678.17 999.55,678.88"/>
    </edge>
    <edge id=":CENTER_LOWER_8" function="internal">
        <lane id=":CENTER_LOWER_8_0" index="0" speed="10.26" length="2.70" width="3.75" shape="998.12,681.92 997.29,679.35"/>
    </edge>
    <edge id=":CENTER_LOWER_9" function="internal">
        <lane id=":CENTER_LOWER_9_0" index="0" speed="16.67" length="30.50" width="3.75" shape="998.12,681.92 998.12,651.42"/>
    </edge>
    <edge id=":CENTER_LOWER_10" function="internal">
        <lane id=":CENTER_LOWER_10_0" index="0" speed="13.28" length="6.96" width="3.75" shape="998.12,681.92 999.11,675.03"/>
    </edge>
    <edge id=":CENTER_LOWER_11" function="internal">
        <lane id=":CENTER_LOWER_11_0" index="0" speed="4.77" length="1.81" width="3.75" shape="998.12,681.92 999.06,680.51 999.17,680.46"/>
    </edge>
    <edge id=":CENTER_LOWER_48" function="internal">
        <lane id=":CENTER_LOWER_48_0" index="0" speed="14.65" length="16.95" width="3.75" shape="998.83,668.22 1004.48,665.87 1015.25,664.79"/>
    </edge>
    <edge id=":CENTER_LOWER_49" function="internal">
        <lane id=":CENTER_LOWER_49_0" index="0" speed="7.29" length="3.89" width="3.75" shape="999.72,678.69 1001.88,681.92"/>
    </edge>
    <edge id=":CENTER_LOWER_50" function="internal">
        <lane id=":CENTER_LOWER_50_0" index="0" speed="9.21" length="9.61" width="3.75" shape="993.50,679.07 991.97,677.51 988.96,676.41 984.75,676.04"/>
    </edge>
    <edge id=":CENTER_LOWER_51" function="internal">
        <lane id=":CENTER_LOWER_51_0" index="0" speed="13.97" length="17.43" width="3.75" shape="999.03,669.85 999.59,669.08 1006.12,665.87 1015.25,664.79"/>
    </edge>
    <edge id=":CENTER_LOWER_52" function="internal">
        <lane id=":CENTER_LOWER_52_0" index="0" speed="6.16" length="3.89" width="3.75" shape="999.55,678.88 1000.00,679.11 1001.88,681.92"/>
    </edge>
    <edge id=":CENTER_LOWER_53" function="internal">
        <lane id=":CENTER_LOWER_53_0" index="0" speed="10.26" length="13.29" width="3.75" shape="997.29,679.35 994.78,677.51 990.60,676.41 984.75,676.04"/>
    </edge>
    <edge id=":CENTER_LOWER_54" function="internal">
        <lane id=":CENTER_LOWER_54_0" index="0" speed="13.28" length="20.66" width="3.75" shape="999.11,675.03 999.20,674.43 1002.41,669.08 1007.76,665.87 1015.25,664.79"/>
    </edge>
    <edge id=":CENTER_LOWER_55" function="internal">
        <lane id=":CENTER_LOWER_55_0" index="0" speed="4.77" length="3.67" width="3.75" shape="999.17,680.46 1000.00,680.04 1000.94,680.51 1001.88,681.92"/>
    </edge>
    <edge id=":CENTER_LOWER_12" function="internal">
        <lane id=":CENTER_LOWER_12_0" index="0" speed="8.09" length="9.47" width="3.75" shape="1015.25,676.04 1012.68,676.41 1010.84,677.51 1009.74,679.35 1009.38,681.92"/>
    </edge>
    <edge id=":CENTER_LOWER_13" function="internal">
        <lane id=":CENTER_LOWER_13_0" index="0" speed="16.67" length="30.50" width="3.75" shape="1015.25,676.04 984.75,676.04"/>
    </edge>
    <edge id=":CENTER_LOWER_14" function="internal">
        <lane id=":CENTER_LOWER_14_0" index="0" speed="14.65" length="33.88" width="3.75" shape="1015.25,676.04 1007.76,674.51 1002.41,669.89 999.20,662.19 998.12,651.42"/>
    </edge>
    <edge id=":CENTER_LOWER_15" function="internal">
        <lane id=":CENTER_LOWER_15_0" index="0" speed="7.29" length="16.43" width="3.75" shape="1015.25,676.04 1011.03,673.23 1009.62,670.42 1011.03,667.61 1015.25,664.79"/>
    </edge>
    <edge id=":CENTER_LOWER_16" function="internal">
        <lane id=":CENTER_LOWER_16_0" index="0" speed="9.21" length="12.64" width="3.75" shape="1015.25,672.29 1012.68,672.90 1010.84,674.70 1009.74,677.71 1009.38,681.92"/>
    </edge>
    <edge id=":CENTER_LOWER_17" function="internal">
        <lane id=":CENTER_LOWER_17_0" index="0" speed="16.67" length="30.50" width="3.75" shape="1015.25,672.29 984.75,672.29"/>
    </edge>
    <edge id=":CENTER_LOWER_18" function="internal">
        <lane id=":CENTER_LOWER_18_0" index="0" speed="13.97" length="30.70" width="3.75" shape="1015.25,672.29 1007.76,670.99 1002.41,667.08 999.20,660.55 998.12,651.42"/>
    </edge>
    <edge id=":CENTER_LOWER_19" function="internal">
        <lane id=":CENTER_LOWER_19_0" index="0" speed="6.16" length="10.95" width="3.75" shape="1015.25,672.29 1012.44,670.42 1011.50,668.54 1012.44,666.67 1015.25,664.79"/>
    </edge>
    <edge id=":CENTER_LOWER_20" function="internal">
        <lane id=":CENTER_LOWER_20_0" index="0" speed="10.26" length="16.00" width="3.75" shape="1015.25,668.54 1012.68,669.38 1010.84,671.89 1009.74,676.07 1009.38,681.92"/>
    </edge>
    <edge id=":CENTER_LOWER_21" function="internal">
        <lane id=":CENTER_LOWER_21_0" index="0" speed="16.67" length="30.50" width="3.75" shape="1015.25,668.54 984.75,668.54"/>
    </edge>
    <edge id=":CENTER_LOWER_22" function="internal">
        <lane id=":CENTER_LOWER_22_0" index="0" speed="13.28" length="27.62" width="3.75" shape="1015.25,668.54 1007.76,667.47 1002.41,664.26 999.20,658.91 998.12,651.42"/>
    </edge>
    <edge id=":CENTER_LOWER_23" function="internal">
        <lane id=":CENTER_LOWER_23_0" index="0" speed="4.77" length="5.48" width="3.75" shape="1015.25,668.54 1013.84,667.61 1013.38,666.67 1013.84,665.73 1015.25,664.79"/>
    </edge>
    <edge id=":CENTER_LOWER_24" function="internal">
        <lane id=":CENTER_LOWER_24_0" index="0" speed="8.09" length="9.47" width="3.75" shape="1009.38,651.42 1009.74,653.99 1010.84,655.83 1012.68,656.93 1015.25,657.29"/>
    </edge>
    <edge id=":CENTER_LOWER_25" function="internal">
        <lane id=":CENTER_LOWER_25_0" index="0" speed="16.67" length="30.50" width="3.75" shape="1009.38,651.42 1009.38,681.92"/>
    </edge>
    <edge id=":CENTER_LOWER_26" function="internal">
        <lane id=":CENTER_LOWER_26_0" index="0" speed="14.65" length="16.94" width="3.75" shape="1009.38,651.42 1007.84,658.91 1003.22,664.26 1001.17,665.12"/>
    </edge>
    <edge id=":CENTER_LOWER_27" function="internal">
        <lane id=":CENTER_LOWER_27_0" index="0" speed="7.29" length="12.54" width="3.75" shape="1009.38,651.42 1006.56,655.64 1003.75,657.04 1000.94,655.64 1000.28,654.65"/>
    </edge>
    <edge id=":CENTER_LOWER_28" function="internal">
        <lane id=":CENTER_LOWER_28_0" index="0" speed="9.21" length="3.04" width="3.75" shape="1005.62,651.42 1006.23,653.99 1006.50,654.27"/>
    </edge>
    <edge id=":CENTER_LOWER_29" function="internal">
        <lane id=":CENTER_LOWER_29_0" index="0" speed="16.67" length="30.50" width="3.75" shape="1005.62,651.42 1005.62,681.92"/>
    </edge>
    <edge id=":CENTER_LOWER_30" function="internal">
        <lane id=":CENTER_LOWER_30_0" index="0" speed="13.97" length="13.27" width="3.75" shape="1005.62,651.42 1004.32,658.91 1000.97,663.49"/>
    </edge>
    <edge id=":CENTER_LOWER_31" function="internal">
        <lane id=":CENTER_LOWER_31_0" index="0" speed="6.16" length="7.07" width="3.75" shape="1005.62,651.42 1003.75,654.23 1001.88,655.17 1000.45,654.46"/>
    </edge>
    <edge id=":CENTER_LOWER_32" function="internal">
        <lane id=":CENTER_LOWER_32_0" index="0" speed="10.26" length="2.70" width="3.75" shape="1001.88,651.42 1002.71,653.99"/>
    </edge>
    <edge id=":CENTER_LOWER_33" function="internal">
        <lane id=":CENTER_LOWER_33_0" index="0" speed="16.67" length="30.50" width="3.75" shape="1001.88,651.42 1001.88,681.92"/>
    </edge>
    <edge id=":CENTER_LOWER_34" function="internal">
        <lane id=":CENTER_LOWER_34_0" index="0" speed="13.28" length="6.96" width="3.75" shape="1001.88,651.42 1000.89,658.31"/>
    </edge>
    <edge id=":CENTER_LOWER_35" function="internal">
        <lane id=":CENTER_LOWER_35_0" index="0" speed="4.77" length="1.81" width="3.75" shape="1001.88,651.42 1000.94,652.83 1000.83,652.88"/>
    </edge>
    <edge id=":CENTER_LOWER_56" function="internal">
        <lane id=":CENTER_LOWER_56_0" index="0" speed="14.65" length="16.95" width="3.75" shape="1001.17,665.12 995.52,667.47 984.75,668.54"/>
    </edge>
    <edge id=":CENTER_LOWER_57" function="internal">
        <lane id=":CENTER_LOWER_57_0" index="0" speed="7.29" length="3.89" width="3.75" shape="1000.28,654.65 998.12,651.42"/>
    </edge>
    <edge id=":CENTER_LOWER_58" function="internal">
        <lane id=":CENTER_LOWER_58_0" index="0" speed="9.21" length="9.61" width="3.75" shape="1006.50,654.27 1008.03,655.83 1011.04,656.93 1015.25,657.29"/>
    </edge>
    <edge id=":CENTER_LOWER_59" function="internal">
        <lane id=":CENTER_LOWER_59_0" index="0" speed="13.97" length="17.43" width="3.75" shape="1000.97,663.49 1000.41,664.26 993.88,667.47 984.75,668.54"/>
    </edge>
    <edge id=":CENTER_LOWER_60" function="internal">
        <lane id=":CENTER_LOWER_60_0" index="0" speed="6.16" length="3.89" width="3.75" shape="1000.45,654.46 1000.00,654.23 998.12,651.42"/>
    </edge>
    <edge id=":CENTER_LOWER_61" function="internal">
        <lane id=":CENTER_LOWER_61_0" index="0" speed="10.26" length="13.29" width="3.75" shape="1002.71,653.99 1005.22,655.83 1009.40,656.93 1015.25,657.29"/>
    </edge>
    <edge id=":CENTER_LOWER_62" function="internal">
        <lane id=":CENTER_LOWER_62_0" index="0" speed="13.28" length="20.66" width="3.75" shape="1000.89,658.31 1000.80,658.91 997.59,664.26 992.24,667.47 984.75,668.54"/>
    </edge>
    <edge id=":CENTER_LOWER_63" function="internal">
        <lane id=":CENTER_LOWER_63_0" index="0" speed="4.77" length="3.67" width="3.75" shape="1000.83,652.88 1000.00,653.29 999.06,652.83 998.12,651.42"/>
    </edge>
    <edge id=":CENTER_LOWER_36" function="internal">
        <lane id=":CENTER_LOWER_36_0" index="0" speed="8.09" length="9.47" width="3.75" shape="984.75,657.29 987.32,656.93 989.16,655.83 990.26,653.99 990.62,651.42"/>
    </edge>
    <edge id=":CENTER_LOWER_37" function="internal">
        <lane id=":CENTER_LOWER_37_0" index="0" speed="16.67" length="30.50" width="3.75" shape="984.75,657.29 1015.25,657.29"/>
    </edge>
    <edge id=":CENTER_LOWER_38" function="internal">
        <lane id=":CENTER_LOWER_38_0" index="0" speed="14.65" length="33.88" width="3.75" shape="984.75,657.29 992.24,658.83 997.59,663.45 1000.80,671.15 1001.88,681.92"/>
    </edge>
    <edge id=":CENTER_LOWER_39" function="internal">
        <lane id=":CENTER_LOWER_39_0" index="0" speed="7.29" length="16.43" width="3.75" shape="984.75,657.29 988.97,660.11 990.38,662.92 988.97,665.73 984.75,668.54"/>
    </edge>
    <edge id=":CENTER_LOWER_40" function="internal">
        <lane id=":CENTER_LOWER_40_0" index="0" speed="9.21" length="12.64" width="3.75" shape="984.75,661.04 987.32,660.44 989.16,658.64 990.26,655.63 990.62,651.42"/>
    </edge>
    <edge id=":CENTER_LOWER_41" function="internal">
        <lane id=":CENTER_LOWER_41_0" index="0" speed="16.67" length="30.50" width="3.75" shape="984.75,661.04 1015.25,661.04"/>
    </edge>
    <edge id=":CENTER_LOWER_42" function="internal">
        <lane id=":CENTER_LOWER_42_0" index="0" speed="13.97" length="30.70" width="3.75" shape="984.75,661.04 992.24,662.35 997.59,666.26 1000.80,672.79 1001.88,681.92"/>
    </edge>
    <edge id=":CENTER_LOWER_43" function="internal">
        <lane id=":CENTER_LOWER_43_0" index="0" speed="6.16" length="10.95" width="3.75" shape="984.75,661.04 987.56,662.92 988.50,664.79 987.56,666.67 984.75,668.54"/>
    </edge>
    <edge id=":CENTER_LOWER_44" function="internal">