<?xml version="1.0" ?>
<routes xmlns:xsi="http://www.w3.org/2001/XMLSchema-instance" xsi:noNamespaceSchemaLocation="http://sumo.dlr.de/xsd/routes_file.xsd">
    <vType id="passenger" maxSpeed="22.2" speedFactor="1.0" speedDev="0.1" length="4.5" minGap="2.0" accel="2.6" decel="4.5" sigma="0.5"/>
    <vType id="truck" maxSpeed="25.0" speedFactor="0.9" speedDev="0.05" length="12.0" minGap="3.0" accel="1.8" decel="4.0" sigma="0.5"/>
    <vType id="bus" maxSpeed="22.2" speedFactor="0.85" speedDev="0.05" length="12.0" minGap="3.0" accel="2.0" decel="4.0" sigma="0.5"/>
    <route id="outer_cw" edges="E_BOTTOM_L E_BOTTOM_R E_RIGHT_LOW_R E_RIGHT_MID_R E_RIGHT_UP_R E_TOP_R_R E_TOP_L_R E_LEFT_UP E_LEFT_MID E_LEFT_LOW E_BOTTOM_L E_BOTTOM_R E_RIGHT_LOW_R E_RIGHT_MID_R E_RIGHT_UP_R E_TOP_R_R E_TOP_L_R E_LEFT_UP E_LEFT_MID E_LEFT_LOW"/>
    <route id="inner_left_cw" edges="E_UPPER_LEFT E_CENTER_MID E_LOWER_LEFT_R E_LEFT_MID_R E_UPPER_LEFT E_CENTER_MID E_LOWER_LEFT_R E_LEFT_MID_R E_UPPER_LEFT E_CENTER_MID E_LOWER_LEFT_R E_LEFT_MID_R E_UPPER_LEFT E_CENTER_MID E_LOWER_LEFT_R E_LEFT_MID_R"/>
    <route id="inner_right_cw" edges="E_UPPER_RIGHT_R E_CENTER_MID E_LOWER_RIGHT E_RIGHT_MID_R E_UPPER_RIGHT_R E_CENTER_MID E_LOWER_RIGHT E_RIGHT_MID_R E_UPPER_RIGHT_R E_CENTER_MID E_LOWER_RIGHT E_RIGHT_MID_R E_UPPER_RIGHT_R E_CENTER_MID E_LOWER_RIGHT E_RIGHT_MID_R"/>
    <route id="spine_cw" edges="E_CENTER_LOW_R E_CENTER_MID_R E_CENTER_TOP_R E_TOP_R E_RIGHT_UP E_RIGHT_MID E_RIGHT_LOW E_BOTTOM_R_R E_CENTER_LOW_R E_CENTER_MID_R E_CENTER_TOP_R E_TOP_R E_RIGHT_UP E_RIGHT_MID E_RIGHT_LOW E_BOTTOM_R_R"/>
    <route id="outer_cw_ccw" edges="E_LEFT_LOW_R E_LEFT_MID_R E_LEFT_UP_R E_TOP_L E_TOP_R E_RIGHT_UP E_RIGHT_MID E_RIGHT_LOW E_BOTTOM_R_R E_BOTTOM_L_R E_LEFT_LOW_R E_LEFT_MID_R E_LEFT_UP_R E_TOP_L E_TOP_R E_RIGHT_UP E_RIGHT_MID E_RIGHT_LOW E_BOTTOM_R_R E_BOTTOM_L_R"/>
    <route id="inner_left_cw_ccw" edges="E_LEFT_MID E_LOWER_LEFT E_CENTER_MID_R E_UPPER_LEFT_R E_LEFT_MID E_LOWER_LEFT E_CENTER_MID_R E_UPPER_LEFT_R E_LEFT_MID E_LOWER_LEFT E_CENTER_MID_R E_UPPER_LEFT_R E_LEFT_MID E_LOWER_LEFT E_CENTER_MID_R E_UPPER_LEFT_R"/>
    <route id="inner_right_cw_ccw" edges="E_RIGHT_MID E_LOWER_RIGHT_R E_CENTER_MID_R E_UPPER_RIGHT E_RIGHT_MID E_LOWER_RIGHT_R E_CENTER_MID_R E_UPPER_RIGHT E_RIGHT_MID E_LOWER_RIGHT_R E_CENTER_MID_R E_UPPER_RIGHT E_RIGHT_MID E_LOWER_RIGHT_R E_CENTER_MID_R E_UPPER_RIGHT"/>
    <route id="spine_cw_ccw" edges="E_BOTTOM_R E_RIGHT_LOW_R E_RIGHT_MID_R E_RIGHT_UP_R E_TOP_R_R E_CENTER_TOP E_CENTER_MID E_CENTER_LOW E_BOTTOM_R E_RIGHT_LOW_R E_RIGHT_MID_R E_RIGHT_UP_R E_TOP_R_R E_CENTER_TOP E_CENTER_MID E_CENTER_LOW"/>
    <vehicle id="car0" type="passenger" route="inner_left_cw" depart="0.0" color="1,1,0"/>
    <vehicle id="car1" type="truck" route="inner_left_cw_ccw" depart="0.5" color="0,1,0"/>
    <vehicle id="car2" type="passenger" route="inner_right_cw" depart="1.0" color="1,1,0"/>
    <vehicle id="car3" type="passenger" route="inner_right_cw_ccw" depart="1.5" color="1,1,0"/>
    <vehicle id="car4" type="passenger" route="outer_cw" depart="2.0" color="1,1,0"/>
    <vehicle id="car5" type="passenger" route="outer_cw_ccw" depart="2.5" color="1,1,0"/>
    <vehicle id="car6" type="passenger" route="spine_cw" depart="3.0" color="1,1,0"/>
    <vehicle id="car7" type="truck" route="spine_cw_ccw" depart="3.5" color="0,1,0"/>
    <vehicle id="car8" type="passenger" route="inner_left_cw" depart="4.0" color="1,1,0"/>
    <vehicle id="car9" type="truck" route="inner_left_cw_ccw" depart="4.5" color="0,1,0"/>
    <vehicle id="car10" type="passenger" route="inner_right_cw" depart="5.0" color="1,1,0"/>
    <vehicle id="car11" type="passenger" route="inner_right_cw_ccw" depart="5.5" color="1,1,0"/>
    <vehicle id="car12" type="truck" route="outer_cw" depart="6.0" color="0,1,0"/>
    <vehicle id="car13" type="bus" route="outer_cw_ccw" depart="6.5" color="0,0,1"/>
    <vehicle id="car14" type="passenger" route="spine_cw" depart="7.0" color="1,1,0"/>
    <vehicle id="car15" type="passenger" route="spine_cw_ccw" depart="7.5" color="1,1,0"/>
    <vehicle id="car16" type="passenger" route="inner_left_cw" depart="8.0" color="1,1,0"/>
    <vehicle id="car17" type="passenger" route="inner_left_cw_ccw" depart="8.5" color="1,1,0"/>
    <vehicle id="car18" type="passenger" route="inner_right_cw" depart="9.0" color="1,1,0"/>
    <vehicle id="car19" type="truck" route="inner_right_cw_ccw" depart="9.5" color="0,1,0"/>
    <vehicle id="car20" type="passenger" route="outer_cw" depart="10.1" color="1,1,0"/>
    <vehicle id="car21" type="passenger" route="outer_cw_ccw" depart="10.6" color="1,1,0"/>
    <vehicle id="car22" type="passenger" route="spine_cw" depart="11.1" color="1,1,0"/>
    <vehicle id="car23" type="bus" route="spine_cw_ccw" depart="11.6" color="0,0,1"/>
    <vehicle id="car24" type="passenger" route="inner_left_cw" depart="12.1" color="1,1,0"/>
    <vehicle id="car25" type="passenger" route="inner_left_cw_ccw" depart="12.6" color="1,1,0"/>
    <vehicle id="car26" type="truck" route="inner_right_cw" depart="13.1" color="0,1,0"/>
    <vehicle id="car27" type="truck" route="inner_right_cw_ccw" depart="13.6" color="0,1,0"/>
    <vehicle id="car28" type="passenger" route="outer_cw" depart="14.1" color="1,1,0"/>
    <vehicle id="car29" type="passenger" route="outer_cw_ccw" depart="14.6" color="1,1,0"/>
    <vehicle id="car30" type="passenger" route="spine_cw" depart="15.1" color="1,1,0"/>
    <vehicle id="car31" type="passenger" route="spine_cw_ccw" depart="15.6" color="1,1,0"/>
    <vehicle id="car32" type="passenger" route="inner_left_cw" depart="16.1" color="1,1,0"/>
    <vehicle id="car33" type="passenger" route="inner_left_cw_ccw" depart="16.6" color="1,1,0"/>
    <vehicle id="car34" type="passenger" route="inner_right_cw" depart="17.1" color="1,1,0"/>
    <vehicle id="car35" type="passenger" route="inner_right_cw_ccw" depart="17.6" color="1,1,0"/>
    <vehicle id="car36" type="passenger" route="outer_cw" depart="18.1" color="1,1,0"/>
    <vehicle id="car37" type="passenger" route="outer_cw_ccw" depart="18.6" color="1,1,0"/>
    <vehicle id="car38" type="passenger" route="spine_cw" depart="19.1" color="1,1,0"/>
    <vehicle id="car39" type="passenger" route="spine_cw_ccw" depart="19.6" color="1,1,0"/>
    <vehicle id="car40" type="passenger" route="inner_left_cw" depart="20.1" color="1,1,0"/>
    <vehicle id="car41" type="truck" route="inner_left_cw_ccw" depart="20.6" color="0,1,0"/>
    <vehicle id="car42" type="passenger" route="inner_right_cw" depart="21.1" color="1,1,0"/>
    <vehicle id="car43" type="passenger" route="inner_right_cw_ccw" depart="21.6" color="1,1,0"/>
    <vehicle id="car44" type="truck" route="outer_cw" depart="22.1" color="0,1,0"/>
    <vehicle id="car45" type="passenger" route="outer_cw_ccw" depart="22.6" color="1,1,0"/>
    <vehicle id="car46" type="truck" route="spine_cw" depart="23.1" color="0,1,0"/>
    <vehicle id="car47" type="passenger" route="spine_cw_ccw" depart="23.6" color="1,1,0"/>
    <vehicle id="car48" type="passenger" route="inner_left_cw" depart="24.1" color="1,1,0"/>
    <vehicle id="car49" type="passenger" route="inner_left_cw_ccw" depart="24.6" color="1,1,0"/>
    <vehicle id="car50" type="passenger" route="inner_right_cw" depart="25.1" color="1,1,0"/>
    <vehicle id="car51" type="passenger" route="inner_right_cw_ccw" depart="25.6" color="1,1,0"/>
    <vehicle id="car52" type="passenger" route="outer_cw" depart="26.1" color="1,1,0"/>
    <vehicle id="car53" type="passenger" route="outer_cw_ccw" depart="26.6" color="1,1,0"/>
    <vehicle id="car54" type="passenger" route="spine_cw" depart="27.1" color="1,1,0"/>
    <vehicle id="car55" type="passenger" route="spine_cw_ccw" depart="27.6" color="1,1,0"/>
    <vehicle id="car56" type="bus" route="inner_left_cw" depart="28.1" color="0,0,1"/>
    <vehicle id="car57" type="passenger" route="inner_left_cw_ccw" depart="28.6" color="1,1,0"/>
    <vehicle id="car58" type="bus" route="inner_right_cw" depart="29.1" color="0,0,1"/>
    <vehicle id="car59" type="passenger" route="inner_right_cw_ccw" depart="29.6" color="1,1,0"/>
    <vehicle id="car60" type="passenger" route="outer_cw" depart="30.2" color="1,1,0"/>
    <vehicle id="car61" type="passenger" route="outer_cw_ccw" depart="30.7" color="1,1,0"/>
    <vehicle id="car62" type="passenger" route="spine_cw" depart="31.2" color="1,1,0"/>
    <vehicle id="car63" type="passenger" route="spine_cw_ccw" depart="31.7" color="1,1,0"/>
    <vehicle id="car64" type="passenger" route="inner_left_cw" depart="32.2" color="1,1,0"/>
    <vehicle id="car65" type="passenger" route="inner_left_cw_ccw" depart="32.7" color="1,1,0"/>
    <vehicle id="car66" type="passenger" route="inner_right_cw" depart="33.2" color="1,1,0"/>
    <vehicle id="car67" type="truck" route="inner_right_cw_ccw" depart="33.7" color="0,1,0"/>
    <vehicle id="car68" type="passenger" route="outer_cw" depart="34.2" color="1,1,0"/>
    <vehicle id="car69" type="passenger" route="outer_cw_ccw" depart="34.7" color="1,1,0"/>
    <vehicle id="car70" type="passenger" route="spine_cw" depart="35.2" color="1,1,0"/>
    <vehicle id="car71" type="passenger" route="spine_cw_ccw" depart="35.7" color="1,1,0"/>
    <vehicle id="car72" type="passenger" route="inner_left_cw" depart="36.2" color="1,1,0"/>
    <vehicle id="car73" type="passenger" route="inner_left_cw_ccw" depart="36.7" color="1,1,0"/>
    <vehicle id="car74" type="passenger" route="inner_right_cw" depart="37.2" color="1,1,0"/>
    <vehicle id="car75" type="passenger" route="inner_right_cw_ccw" depart="37.7" color="1,1,0"/>
    <vehicle id="car76" type="passenger" route="outer_cw" depart="38.2" color="1,1,0"/>
    <vehicle id="car77" type="passenger" route="outer_cw_ccw" depart="38.7" color="1,1,0"/>
    <vehicle id="car78" type="passenger" route="spine_cw" depart="39.2" color="1,1,0"/>
    <vehicle id="car79" type="passenger" route="spine_cw_ccw" depart="39.7" color="1,1,0"/>
    <vehicle id="car80" type="passenger" route="inner_left_cw" depart="40.2" color="1,1,0"/>
    <vehicle id="car81" type="passenger" route="inner_left_cw_ccw" depart="40.7" color="1,1,0"/>
    <vehicle id="car82" type="passenger" route="inner_right_cw" depart="41.2" color="1,1,0"/>
    <vehicle id="car83" type="passenger" route="inner_right_cw_ccw" depart="41.7" color="1,1,0"/>
    <vehicle id="car84" type="passenger" route="outer_cw" depart="42.2" color="1,1,0"/>
    <vehicle id="car85" type="passenger" route="outer_cw_ccw" depart="42.7" color="1,1,0"/>
    <vehicle id="car86" type="passenger" route="spine_cw" depart="43.2" color="1,1,0"/>
    <vehicle id="car87" type="passenger" route="spine_cw_ccw" depart="43.7" color="1,1,0"/>
    <vehicle id="car88" type="truck" route="inner_left_cw" depart="44.2" color="0,1,0"/>
    <vehicle id="car89" type="truck" route="inner_left_cw_ccw" depart="44.7" color="0,1,0"/>
    <vehicle id="car90" type="truck" route="inner_right_cw" depart="45.2" color="0,1,0"/>
    <vehicle id="car91" type="passenger" route="inner_right_cw_ccw" depart="45.7" color="1,1,0"/>
    <vehicle id="car92" type="passenger" route="outer_cw" depart="46.2" color="1,1,0"/>
    <vehicle id="car93" type="passenger" route="outer_cw_ccw" depart="46.7" color="1,1,0"/>
    <vehicle id="car94" type="truck" route="spine_cw" depart="47.2" color="0,1,0"/>
    <vehicle id="car95" type="passenger" route="spine_cw_ccw" depart="47.7" color="1,1,0"/>
    <vehicle id="car96" type="passenger" route="inner_left_cw" depart="48.2" color="1,1,0"/>
    <vehicle id="car97" type="passenger" route="inner_left_cw_ccw" depart="48.7" color="1,1,0"/>
    <vehicle id="car98" type="passenger" route="inner_right_cw" depart="49.2" color="1,1,0"/>
    <vehicle id="car99" type="passenger" route="inner_right_cw_ccw" depart="49.7" color="1,1,0"/>
    <vehicle id="car100" type="truck" route="outer_cw" depart="50.3" color="0,1,0"/>
    <vehicle id="car101" type="passenger" route="outer_cw_ccw" depart="50.8" color="1,1,0"/>
    <vehicle id="car102" type="passenger" route="spine_cw" depart="51.3" color="1,1,0"/>
    <vehicle id="car103" type="passenger" route="spine_cw_ccw" depart="51.8" color="1,1,0"/>
    <vehicle id="car104" type="passenger" route="inner_left_cw" depart="52.3" color="1,1,0"/>
    <vehicle id="car105" type="passenger" route="inner_left_cw_ccw" depart="52.8" color="1,1,0"/>
    <vehicle id="car106" type="truck" route="inner_right_cw" depart="53.3" color="0,1,0"/>
    <vehicle id="car107" type="passenger" route="inner_right_cw_ccw" depart="53.8" color="1,1,0"/>
    <vehicle id="car108" type="passenger" route="outer_cw" depart="54.3" color="1,1,0"/>
    <vehicle id="car109" type="passenger" route="outer_cw_ccw" depart="54.8" color="1,1,0"/>
    <vehicle id="car110" type="passenger" route="spine_cw" depart="55.3" color="1,1,0"/>
    <vehicle id="car111" type="passenger" route="spine_cw_ccw" depart="55.8" color="1,1,0"/>
    <vehicle id="car112" type="passenger" route="inner_left_cw" depart="56.3" color="1,1,0"/>
    <vehicle id="car113" type="bus" route="inner_left_cw_ccw" depart="56.8" color="0,0,1"/>
    <vehicle id="car114" type="passenger" route="inner_right_cw" depart="57.3" color="1,1,0"/>
    <vehicle id="car115" type="passenger" route="inner_right_cw_ccw" depart="57.8" color="1,1,0"/>
    <vehicle id="car116" type="passenger" route="outer_cw" depart="58.3" color="1,1,0"/>
    <vehicle id="car117" type="passenger" route="outer_cw_ccw" depart="58.8" color="1,1,0"/>
    <vehicle id="car118" type="passenger" route="spine_cw" depart="59.3" color="1,1,0"/>
    <vehicle id="car119" type="bus" route="spine_cw_ccw" depart="59.8" color="0,0,1"/>
    <vehicle id="car120" type="passenger" route="inner_left_cw" depart="60.3" color="1,1,0"/>
    <vehicle id="car121" type="passenger" route="inner_left_cw_ccw" depart="60.8" color="1,1,0"/>
    <vehicle id="car122" type="passenger" route="inner_right_cw" depart="61.3" color="1,1,0"/>
    <vehicle id="car123" type="passenger" route="inner_right_cw_ccw" depart="61.8" color="1,1,0"/>
    <vehicle id="car124" type="truck" route="outer_cw" depart="62.3" color="0,1,0"/>
    <vehicle id="car125" type="passenger" route="outer_cw_ccw" depart="62.8" color="1,1,0"/>
    <vehicle id="car126" type="truck" route="spine_cw" depart="63.3" color="0,1,0"/>
    <vehicle id="car127" type="passenger" route="spine_cw_ccw" depart="63.8" color="1,1,0"/>
    <vehicle id="car128" type="passenger" route="inner_left_cw" depart="64.3" color="1,1,0"/>
    <vehicle id="car129" type="passenger" route="inner_left_cw_ccw" depart="64.8" color="1,1,0"/>
    <vehicle id="car130" type="passenger" route="inner_right_cw" depart="65.3" color="1,1,0"/>
    <vehicle id="car131" type="truck" route="inner_right_cw_ccw" depart="65.8" color="0,1,0"/>
    <vehicle id="car132" type="passenger" route="outer_cw" depart="66.3" color="1,1,0"/>
    <vehicle id="car133" type="passenger" route="outer_cw_ccw" depart="66.8" color="1,1,0"/>
    <vehicle id="car134" type="truck" route="spine_cw" depart="67.3" color="0,1,0"/>
    <vehicle id="car135" type="passenger" route="spine_cw_ccw" depart="67.8" color="1,1,0"/>
    <vehicle id="car136" type="truck" route="inner_left_cw" depart="68.3" color="0,1,0"/>
    <vehicle id="car137" type="passenger" route="inner_left_cw_ccw" depart="68.8" color="1,1,0"/>
    <vehicle id="car138" type="passenger" route="inner_right_cw" depart="69.3" color="1,1,0"/>
    <vehicle id="car139" type="truck" route="inner_right_cw_ccw" depart="69.8" color="0,1,0"/>
    <vehicle id="car140" type="passenger" route="outer_cw" depart="70.4" color="1,1,0"/>
    <vehicle id="car141" type="passenger" route="outer_cw_ccw" depart="70.9" color="1,1,0"/>
    <vehicle id="car142" type="passenger" route="spine_cw" depart="71.4" color="1,1,0"/>
    <vehicle id="car143" type="passenger" route="spine_cw_ccw" depart="71.9" color="1,1,0"/>
    <vehicle id="car144" type="passenger" route="inner_left_cw" depart="72.4" color="1,1,0"/>
    <vehicle id="car145" type="passenger" route="inner_left_cw_ccw" depart="72.9" color="1,1,0"/>
    <vehicle id="car146" type="passenger" route="inner_right_cw" depart="73.4" color="1,1,0"/>
    <vehicle id="car147" type="passenger" route="inner_right_cw_ccw" depart="73.9" color="1,1,0"/>
    <vehicle id="car148" type="passenger" route="outer_cw" depart="74.4" color="1,1,0"/>
    <vehicle id="car149" type="passenger" route="outer_cw_ccw" depart="74.9" color="1,1,0"/>
    <vehicle id="car150" type="passenger" route="spine_cw" depart="75.4" color="1,1,0"/>
    <vehicle id="car151" type="passenger" route="spine_cw_ccw" depart="75.9" color="1,1,0"/>
    <vehicle id="car152" type="passenger" route="inner_left_cw" depart="76.4" color="1,1,0"/>
    <vehicle id="car153" type="passenger" route="inner_left_cw_ccw" depart="76.9" color="1,1,0"/>
    <vehicle id="car154" type="truck" route="inner_right_cw" depart="77.4" color="0,1,0"/>
    <vehicle id="car155" type="passenger" route="inner_right_cw_ccw" depart="77.9" color="1,1,0"/>
    <vehicle id="car156" type="passenger" route="outer_cw" depart="78.4" color="1,1,0"/>
    <vehicle id="car157" type="passenger" route="outer_cw_ccw" depart="78.9" color="1,1,0"/>
    <vehicle id="car158" type="passenger" route="spine_cw" depart="79.4" color="1,1,0"/>
    <vehicle id="car159" type="passenger" route="spine_cw_ccw" depart="79.9" color="1,1,0"/>
    <vehicle id="car160" type="truck" route="inner_left_cw" depart="80.4" color="0,1,0"/>
    <vehicle id="car161" type="passenger" route="inner_left_cw_ccw" depart="80.9" color="1,1,0"/>
    <vehicle id="car162" type="passenger" route="inner_right_cw" depart="81.4" color="1,1,0"/>
    <vehicle id="car163" type="passenger" route="inner_right_cw_ccw" depart="81.9" color="1,1,0"/>
    <vehicle id="car164" type="passenger" route="outer_cw" depart="82.4" color="1,1,0"/>
    <vehicle id="car165" type="truck" route="outer_cw_ccw" depart="82.9" color="0,1,0"/>
    <vehicle id="car166" type="passenger" route="spine_cw" depart="83.4" color="1,1,0"/>
    <vehicle id="car167" type="passenger" route="spine_cw_ccw" depart="83.9" color="1,1,0"/>
    <vehicle id="car168" type="passenger" route="inner_left_cw" depart="84.4" color="1,1,0"/>
    <vehicle id="car169" type="truck" route="inner_left_cw_ccw" depart="84.9" color="0,1,0"/>
    <vehicle id="car170" type="passenger" route="inner_right_cw" depart="85.4" color="1,1,0"/>
    <vehicle id="car171" type="passenger" route="inner_right_cw_ccw" depart="85.9" color="1,1,0"/>
    <vehicle id="car172" type="passenger" route="outer_cw" depart="86.4" color="1,1,0"/>
    <vehicle id="car173" type="passenger" route="outer_cw_ccw" depart="86.9" color="1,1,0"/>
    <vehicle id="car174" type="passenger" route="spine_cw" depart="87.4" color="1,1,0"/>
    <vehicle id="car175" type="bus" route="spine_cw_ccw" depart="87.9" color="0,0,1"/>
    <vehicle id="car176" type="truck" route="inner_left_cw" depart="88.4" color="0,1,0"/>
    <vehicle id="car177" type="passenger" route="inner_left_cw_ccw" depart="88.9" color="1,1,0"/>
    <vehicle id="car178" type="passenger" route="inner_right_cw" depart="89.4" color="1,1,0"/>
    <vehicle id="car179" type="passenger" route="inner_right_cw_ccw" depart="89.9" color="1,1,0"/>
    <vehicle id="car180" type="passenger" route="outer_cw" depart="90.5" color="1,1,0"/>
    <vehicle id="car181" type="passenger" route="outer_cw_ccw" depart="91.0" color="1,1,0"/>
    <vehicle id="car182" type="passenger" route="spine_cw" depart="91.5" color="1,1,0"/>
    <vehicle id="car183" type="truck" route="spine_cw_ccw" depart="92.0" color="0,1,0"/>
    <vehicle id="car184" type="passenger" route="inner_left_cw" depart="92.5" color="1,1,0"/>
    <vehicle id="car185" type="passenger" route="inner_left_cw_ccw" depart="93.0" color="1,1,0"/>
    <vehicle id="car186" type="passenger" route="inner_right_cw" depart="93.5" color="1,1,0"/>
    <vehicle id="car187" type="passenger" route="inner_right_cw_ccw" depart="94.0" color="1,1,0"/>
    <vehicle id="car188" type="bus" route="outer_cw" depart="94.5" color="0,0,1"/>
    <vehicle id="car189" type="passenger" route="outer_cw_ccw" depart="95.0" color="1,1,0"/>
    <vehicle id="car190" type="passenger" route="spine_cw" depart="95.5" color="1,1,0"/>
    <vehicle id="car191" type="passenger" route="spine_cw_ccw" depart="96.0" color="1,1,0"/>
    <vehicle id="car192" type="passenger" route="inner_left_cw" depart="96.5" color="1,1,0"/>
    <vehicle id="car193" type="passenger" route="inner_left_cw_ccw" depart="97.0" color="1,1,0"/>
    <vehicle id="car194" type="passenger" route="inner_right_cw" depart="97.5" color="1,1,0"/>
    <vehicle id="car195" type="passenger" route="inner_right_cw_ccw" depart="98.0" color="1,1,0"/>
    <vehicle id="car196" type="passenger" route="outer_cw" depart="98.5" color="1,1,0"/>
    <vehicle id="car197" type="truck" route="outer_cw_ccw" depart="99.0" color="0,1,0"/>
    <vehicle id="car198" type="passenger" route="spine_cw" depart="99.5" color="1,1,0"/>
    <vehicle id="car199" type="passenger" route="spine_cw_ccw" depart="100.0" color="1,1,0"/>
</routes>