<?xml version="1.0" ?>
<edges xmlns:xsi="http://www.w3.org/2001/XMLSchema-instance" xsi:noNamespaceSchemaLocation="http://sumo.dlr.de/xsd/edges_file.xsd">
    <edge id="E_H_0_0_E" from="N_0_0" to="N_0_1" type="grid_street"/>
    <edge id="E_H_0_1_W" from="N_0_1" to="N_0_0" type="grid_street"/>
    <edge id="E_H_0_1_E" from="N_0_1" to="N_0_2" type="grid_street"/>
    <edge id="E_H_0_2_W" from="N_0_2" to="N_0_1" type="grid_street"/>
    <edge id="E_H_0_2_E" from="N_0_2" to="N_0_3" type="grid_street"/>
    <edge id="E_H_0_3_W" from="N_0_3" to="N_0_2" type="grid_street"/>
    <edge id="E_H_0_3_E" from="N_0_3" to="N_0_4" type="grid_street"/>
    <edge id="E_H_0_4_W" from="N_0_4" to="N_0_3" type="grid_street"/>
    <edge id="E_H_0_4_E" from="N_0_4" to="N_0_5" type="grid_street"/>
    <edge id="E_H_0_5_W" from="N_0_5" to="N_0_4" type="grid_street"/>
    <edge id="E_H_0_5_E" from="N_0_5" to="N_0_6" type="grid_street"/>
    <edge id="E_H_0_6_W" from="N_0_6" to="N_0_5" type="grid_street"/>
    <edge id="E_H_0_6_E" from="N_0_6" to="N_0_7" type="grid_street"/>
    <edge id="E_H_0_7_W" from="N_0_7" to="N_0_6" type="grid_street"/>
    <edge id="E_H_0_7_E" from="N_0_7" to="N_0_8" type="grid_street"/>
    <edge id="E_H_0_8_W" from="N_0_8" to="N_0_7" type="grid_street"/>
    <edge id="E_H_1_0_E" from="N_1_0" to="N_1_1" type="grid_street"/>
    <edge id="E_H_1_1_W" from="N_1_1" to="N_1_0" type="grid_street"/>
    <edge id="E_H_1_1_E" from="N_1_1" to="N_1_2" type="grid_street"/>
    <edge id="E_H_1_2_W" from="N_1_2" to="N_1_1" type="grid_street"/>
    <edge id="E_H_1_2_E" from="N_1_2" to="N_1_3" type="grid_street"/>
    <edge id="E_H_1_3_W" from="N_1_3" to="N_1_2" type="grid_street"/>
    <edge id="E_H_1_3_E" from="N_1_3" to="N_1_4" type="grid_street"/>
    <edge id="E_H_1_4_W" from="N_1_4" to="N_1_3" type="grid_street"/>
    <edge id="E_H_1_4_E" from="N_1_4" to="N_1_5" type="grid_street"/>
    <edge id="E_H_1_5_W" from="N_1_5" to="N_1_4" type="grid_street"/>
    <edge id="E_H_1_5_E" from="N_1_5" to="N_1_6" type="grid_street"/>
    <edge id="E_H_1_6_W" from="N_1_6" to="N_1_5" type="grid_street"/>
    <edge id="E_H_1_6_E" from="N_1_6" to="N_1_7" type="grid_street"/>
    <edge id="E_H_1_7_W" from="N_1_7" to="N_1_6" type="grid_street"/>
    <edge id="E_H_1_7_E" from="N_1_7" to="N_1_8" type="grid_street"/>
    <edge id="E_H_1_8_W" from="N_1_8" to="N_1_7" type="grid_street"/>
    <edge id="E_H_2_0_E" from="N_2_0" to="N_2_1" type="grid_street"/>
    <edge id="E_H_2_1_W" from="N_2_1" to="N_2_0" type="grid_street"/>
    <edge id="E_H_2_1_E" from="N_2_1" to="N_2_2" type="grid_street"/>
    <edge id="E_H_2_2_W" from="N_2_2" to="N_2_1" type="grid_street"/>
    <edge id="E_H_2_2_E" from="N_2_2" to="N_2_3" type="grid_street"/>
    <edge id="E_H_2_3_W" from="N_2_3" to="N_2_2" type="grid_street"/>
    <edge id="E_H_2_3_E" from="N_2_3" to="N_2_4" type="grid_street"/>
    <edge id="E_H_2_4_W" from="N_2_4" to="N_2_3" type="grid_street"/>
    <edge id="E_H_2_4_E" from="N_2_4" to="N_2_5" type="grid_street"/>
    <edge id="E_H_2_5_W" from="N_2_5" to="N_2_4" type="grid_street"/>
    <edge id="E_H_2_5_E" from="N_2_5" to="N_2_6" type="grid_street"/>
    <edge id="E_H_2_6_W" from="N_2_6" to="N_2_5" type="grid_street"/>
    <edge id="E_H_2_6_E" from="N_2_6" to="N_2_7" type="grid_street"/>
    <edge id="E_H_2_7_W" from="N_2_7" to="N_2_6" type="grid_street"/>
    <edge id="E_H_2_7_E" from="N_2_7" to="N_2_8" type="grid_street"/>
    <edge id="E_H_2_8_W" from="N_2_8" to="N_2_7" type="grid_street"/>
    <edge id="E_H_3_0_E" from="N_3_0" to="N_3_1" type="grid_street"/>
    <edge id="E_H_3_1_W" from="N_3_1" to="N_3_0" type="grid_street"/>
    <edge id="E_H_3_1_E" from="N_3_1" to="N_3_2" type="grid_street"/>
    <edge id="E_H_3_2_W" from="N_3_2" to="N_3_1" type="grid_street"/>
    <edge id="E_H_3_2_E" from="N_3_2" to="N_3_3" type="grid_street"/>
    <edge id="E_H_3_3_W" from="N_3_3" to="N_3_2" type="grid_street"/>
    <edge id="E_H_3_3_E" from="N_3_3" to="N_3_4" type="grid_street"/>
    <edge id="E_H_3_4_W" from="N_3_4" to="N_3_3" type="grid_street"/>
    <edge id="E_H_3_4_E" from="N_3_4" to="N_3_5" type="grid_street"/>
    <edge id="E_H_3_5_W" from="N_3_5" to="N_3_4" type="grid_street"/>
    <edge id="E_H_3_5_E" from="N_3_5" to="N_3_6" type="grid_street"/>
    <edge id="E_H_3_6_W" from="N_3_6" to="N_3_5" type="grid_street"/>
    <edge id="E_H_3_6_E" from="N_3_6" to="N_3_7" type="grid_street"/>
    <edge id="E_H_3_7_W" from="N_3_7" to="N_3_6" type="grid_street"/>
    <edge id="E_H_3_7_E" from="N_3_7" to="N_3_8" type="grid_street"/>
    <edge id="E_H_3_8_W" from="N_3_8" to="N_3_7" type="grid_street"/>
    <edge id="E_H_4_0_E" from="N_4_0" to="N_4_1" type="grid_street"/>
    <edge id="E_H_4_1_W" from="N_4_1" to="N_4_0" type="grid_street"/>
    <edge id="E_H_4_1_E" from="N_4_1" to="N_4_2" type="grid_street"/>
    <edge id="E_H_4_2_W" from="N_4_2" to="N_4_1" type="grid_street"/>
    <edge id="E_H_4_2_E" from="N_4_2" to="N_4_3" type="grid_street"/>
    <edge id="E_H_4_3_W" from="N_4_3" to="N_4_2" type="grid_street"/>
    <edge id="E_H_4_3_E" from="N_4_3" to="N_4_4" type="grid_street"/>
    <edge id="E_H_4_4_W" from="N_4_4" to="N_4_3" type="grid_street"/>
    <edge id="E_H_4_4_E" from="N_4_4" to="N_4_5" type="grid_street"/>
    <edge id="E_H_4_5_W" from="N_4_5" to="N_4_4" type="grid_street"/>
    <edge id="E_H_4_5_E" from="N_4_5" to="N_4_6" type="grid_street"/>
    <edge id="E_H_4_6_W" from="N_4_6" to="N_4_5" type="grid_street"/>
    <edge id="E_H_4_6_E" from="N_4_6" to="N_4_7" type="grid_street"/>
    <edge id="E_H_4_7_W" from="N_4_7" to="N_4_6" type="grid_street"/>
    <edge id="E_H_4_7_E" from="N_4_7" to="N_4_8" type="grid_street"/>
    <edge id="E_H_4_8_W" from="N_4_8" to="N_4_7" type="grid_street"/>
    <edge id="E_H_5_0_E" from="N_5_0" to="N_5_1" type="grid_street"/>
    <edge id="E_H_5_1_W" from="N_5_1" to="N_5_0" type="grid_street"/>
    <edge id="E_H_5_1_E" from="N_5_1" to="N_5_2" type="grid_street"/>
    <edge id="E_H_5_2_W" from="N_5_2" to="N_5_1" type="grid_street"/>
    <edge id="E_H_5_2_E" from="N_5_2" to="N_5_3" type="grid_street"/>
    <edge id="E_H_5_3_W" from="N_5_3" to="N_5_2" type="grid_street"/>
    <edge id="E_H_5_3_E" from="N_5_3" to="N_5_4" type="grid_street"/>
    <edge id="E_H_5_4_W" from="N_5_4" to="N_5_3" type="grid_street"/>
    <edge id="E_H_5_4_E" from="N_5_4" to="N_5_5" type="grid_street"/>
    <edge id="E_H_5_5_W" from="N_5_5" to="N_5_4" type="grid_street"/>
    <edge id="E_H_5_5_E" from="N_5_5" to="N_5_6" type="grid_street"/>
    <edge id="E_H_5_6_W" from="N_5_6" to="N_5_5" type="grid_street"/>
    <edge id="E_H_5_6_E" from="N_5_6" to="N_5_7" type="grid_street"/>
    <edge id="E_H_5_7_W" from="N_5_7" to="N_5_6" type="grid_street"/>
    <edge id="E_H_5_7_E" from="N_5_7" to="N_5_8" type="grid_street"/>
    <edge id="E_H_5_8_W" from="N_5_8" to="N_5_7" type="grid_street"/>
    <edge id="E_H_6_0_E" from="N_6_0" to="N_6_1" type="grid_street"/>
    <edge id="E_H_6_1_W" from="N_6_1" to="N_6_0" type="grid_street"/>
    <edge id="E_H_6_1_E" from="N_6_1" to="N_6_2" type="grid_street"/>
    <edge id="E_H_6_2_W" from="N_6_2" to="N_6_1" type="grid_street"/>
    <edge id="E_H_6_2_E" from="N_6_2" to="N_6_3" type="grid_street"/>
    <edge id="E_H_6_3_W" from="N_6_3" to="N_6_2" type="grid_street"/>
    <edge id="E_H_6_3_E" from="N_6_3" to="N_6_4" type="grid_street"/>
    <edge id="E_H_6_4_W" from="N_6_4" to="N_6_3" type="grid_street"/>
    <edge id="E_H_6_4_E" from="N_6_4" to="N_6_5" type="grid_street"/>
    <edge id="E_H_6_5_W" from="N_6_5" to="N_6_4" type="grid_street"/>
    <edge id="E_H_6_5_E" from="N_6_5" to="N_6_6" type="grid_street"/>
    <edge id="E_H_6_6_W" from="N_6_6" to="N_6_5" type="grid_street"/>
    <edge id="E_H_6_6_E" from="N_6_6" to="N_6_7" type="grid_street"/>
    <edge id="E_H_6_7_W" from="N_6_7" to="N_6_6" type="grid_street"/>
    <edge id="E_H_6_7_E" from="N_6_7" to="N_6_8" type="grid_street"/>
    <edge id="E_H_6_8_W" from="N_6_8" to="N_6_7" type="grid_street"/>
    <edge id="E_H_7_0_E" from="N_7_0" to="N_7_1" type="grid_street"/>
    <edge id="E_H_7_1_W" from="N_7_1" to="N_7_0" type="grid_street"/>
    <edge id="E_H_7_1_E" from="N_7_1" to="N_7_2" type="grid_street"/>
    <edge id="E_H_7_2_W" from="N_7_2" to="N_7_1" type="grid_street"/>
    <edge id="E_H_7_2_E" from="N_7_2" to="N_7_3" type="grid_street"/>
    <edge id="E_H_7_3_W" from="N_7_3" to="N_7_2" type="grid_street"/>
    <edge id="E_H_7_3_E" from="N_7_3" to="N_7_4" type="grid_street"/>
    <edge id="E_H_7_4_W" from="N_7_4" to="N_7_3" type="grid_street"/>
    <edge id="E_H_7_4_E" from="N_7_4" to="N_7_5" type="grid_street"/>
    <edge id="E_H_7_5_W" from="N_7_5" to="N_7_4" type="grid_street"/>
    <edge id="E_H_7_5_E" from="N_7_5" to="N_7_6" type="grid_street"/>
    <edge id="E_H_7_6_W" from="N_7_6" to="N_7_5" type="grid_street"/>
    <edge id="E_H_7_6_E" from="N_7_6" to="N_7_7" type="grid_street"/>
    <edge id="E_H_7_7_W" from="N_7_7" to="N_7_6" type="grid_street"/>
    <edge id="E_H_7_7_E" from="N_7_7" to="N_7_8" type="grid_street"/>
    <edge id="E_H_7_8_W" from="N_7_8" to="N_7_7" type="grid_street"/>
    <edge id="E_H_8_0_E" from="N_8_0" to="N_8_1" type="grid_street"/>
    <edge id="E_H_8_1_W" from="N_8_1" to="N_8_0" type="grid_street"/>
    <edge id="E_H_8_1_E" from="N_8_1" to="N_8_2" type="grid_street"/>
    <edge id="E_H_8_2_W" from="N_8_2" to="N_8_1" type="grid_street"/>
    <edge id="E_H_8_2_E" from="N_8_2" to="N_8_3" type="grid_street"/>
    <edge id="E_H_8_3_W" from="N_8_3" to="N_8_2" type="grid_street"/>
    <edge id="E_H_8_3_E" from="N_8_3" to="N_8_4" type="grid_street"/>
    <edge id="E_H_8_4_W" from="N_8_4" to="N_8_3" type="grid_street"/>
    <edge id="E_H_8_4_E" from="N_8_4" to="N_8_5" type="grid_street"/>
    <edge id="E_H_8_5_W" from="N_8_5" to="N_8_4" type="grid_street"/>
    <edge id="E_H_8_5_E" from="N_8_5" to="N_8_6" type="grid_street"/>
    <edge id="E_H_8_6_W" from="N_8_6" to="N_8_5" type="grid_street"/>
    <edge id="E_H_8_6_E" from="N_8_6" to="N_8_7" type="grid_street"/>
    <edge id="E_H_8_7_W" from="N_8_7" to="N_8_6" type="grid_street"/>
    <edge id="E_H_8_7_E" from="N_8_7" to="N_8_8" type="grid_street"/>
    <edge id="E_H_8_8_W" from="N_8_8" to="N_8_7" type="grid_street"/>
    <edge id="E_V_0_0_N" from="N_0_0" to="N_1_0" type="grid_street"/>
    <edge id="E_V_1_0_S" from="N_1_0" to="N_0_0" type="grid_street"/>
    <edge id="E_V_1_0_N" from="N_1_0" to="N_2_0" type="grid_street"/>
    <edge id="E_V_2_0_S" from="N_2_0" to="N_1_0" type="grid_street"/>
    <edge id="E_V_2_0_N" from="N_2_0" to="N_3_0" type="grid_street"/>
    <edge id="E_V_3_0_S" from="N_3_0" to="N_2_0" type="grid_street"/>
    <edge id="E_V_3_0_N" from="N_3_0" to="N_4_0" type="grid_street"/>
    <edge id="E_V_4_0_S" from="N_4_0" to="N_3_0" type="grid_street"/>
    <edge id="E_V_4_0_N" from="N_4_0" to="N_5_0" type="grid_street"/>
    <edge id="E_V_5_0_S" from="N_5_0" to="N_4_0" type="grid_street"/>
    <edge id="E_V_5_0_N" from="N_5_0" to="N_6_0" type="grid_street"/>
    <edge id="E_V_6_0_S" from="N_6_0" to="N_5_0" type="grid_street"/>
    <edge id="E_V_6_0_N" from="N_6_0" to="N_7_0" type="grid_street"/>
    <edge id="E_V_7_0_S" from="N_7_0" to="N_6_0" type="grid_street"/>
    <edge id="E_V_7_0_N" from="N_7_0" to="N_8_0" type="grid_street"/>
    <edge id="E_V_8_0_S" from="N_8_0" to="N_7_0" type="grid_street"/>
    <edge id="E_V_0_1_N" from="N_0_1" to="N_1_1" type="grid_street"/>
    <edge id="E_V_1_1_S" from="N_1_1" to="N_0_1" type="grid_street"/>
    <edge id="E_V_1_1_N" from="N_1_1" to="N_2_1" type="grid_street"/>
    <edge id="E_V_2_1_S" from="N_2_1" to="N_1_1" type="grid_street"/>
    <edge id="E_V_2_1_N" from="N_2_1" to="N_3_1" type="grid_street"/>
    <edge id="E_V_3_1_S" from="N_3_1" to="N_2_1" type="grid_street"/>
    <edge id="E_V_3_1_N" from="N_3_1" to="N_4_1" type="grid_street"/>
    <edge id="E_V_4_1_S" from="N_4_1" to="N_3_1" type="grid_street"/>
    <edge id="E_V_4_1_N" from="N_4_1" to="N_5_1" type="grid_street"/>
    <edge id="E_V_5_1_S" from="N_5_1" to="N_4_1" type="grid_street"/>
    <edge id="E_V_5_1_N" from="N_5_1" to="N_6_1" type="grid_street"/>
    <edge id="E_V_6_1_S" from="N_6_1" to="N_5_1" type="grid_street"/>
    <edge id="E_V_6_1_N" from="N_6_1" to="N_7_1" type="grid_street"/>
    <edge id="E_V_7_1_S" from="N_7_1" to="N_6_1" type="grid_street"/>
    <edge id="E_V_7_1_N" from="N_7_1" to="N_8_1" type="grid_street"/>
    <edge id="E_V_8_1_S" from="N_8_1" to="N_7_1" type="grid_street"/>
    <edge id="E_V_0_2_N" from="N_0_2" to="N_1_2" type="grid_street"/>
    <edge id="E_V_1_2_S" from="N_1_2" to="N_0_2" type="grid_street"/>
    <edge id="E_V_1_2_N" from="N_1_2" to="N_2_2" type="grid_street"/>
    <edge id="E_V_2_2_S" from="N_2_2" to="N_1_2" type="grid_street"/>
    <edge id="E_V_2_2_N" from="N_2_2" to="N_3_2" type="grid_street"/>
    <edge id="E_V_3_2_S" from="N_3_2" to="N_2_2" type="grid_street"/>
    <edge id="E_V_3_2_N" from="N_3_2" to="N_4_2" type="grid_street"/>
    <edge id="E_V_4_2_S" from="N_4_2" to="N_3_2" type="grid_street"/>
    <edge id="E_V_4_2_N" from="N_4_2" to="N_5_2" type="grid_street"/>
    <edge id="E_V_5_2_S" from="N_5_2" to="N_4_2" type="grid_street"/>
    <edge id="E_V_5_2_N" from="N_5_2" to="N_6_2" type="grid_street"/>
    <edge id="E_V_6_2_S" from="N_6_2" to="N_5_2" type="grid_street"/>
    <edge id="E_V_6_2_N" from="N_6_2" to="N_7_2" type="grid_street"/>
    <edge id="E_V_7_2_S" from="N_7_2" to="N_6_2" type="grid_street"/>
    <edge id="E_V_7_2_N" from="N_7_2" to="N_8_2" type="grid_street"/>
    <edge id="E_V_8_2_S" from="N_8_2" to="N_7_2" type="grid_street"/>
    <edge id="E_V_0_3_N" from="N_0_3" to="N_1_3" type="grid_street"/>
    <edge id="E_V_1_3_S" from="N_1_3" to="N_0_3" type="grid_street"/>
    <edge id="E_V_1_3_N" from="N_1_3" to="N_2_3" type="grid_street"/>
    <edge id="E_V_2_3_S" from="N_2_3" to="N_1_3" type="grid_street"/>
    <edge id="E_V_2_3_N" from="N_2_3" to="N_3_3" type="grid_street"/>
    <edge id="E_V_3_3_S" from="N_3_3" to="N_2_3" type="grid_street"/>
    <edge id="E_V_3_3_N" from="N_3_3" to="N_4_3" type="grid_street"/>
    <edge id="E_V_4_3_S" from="N_4_3" to="N_3_3" type="grid_street"/>
    <edge id="E_V_4_3_N" from="N_4_3" to="N_5_3" type="grid_street"/>
    <edge id="E_V_5_3_S" from="N_5_3" to="N_4_3" type="grid_street"/>
    <edge id="E_V_5_3_N" from="N_5_3" to="N_6_3" type="grid_street"/>
    <edge id="E_V_6_3_S" from="N_6_3" to="N_5_3" type="grid_street"/>
    <edge id="E_V_6_3_N" from="N_6_3" to="N_7_3" type="grid_street"/>
    <edge id="E_V_7_3_S" from="N_7_3" to="N_6_3" type="grid_street"/>
    <edge id="E_V_7_3_N" from="N_7_3" to="N_8_3" type="grid_street"/>
    <edge id="E_V_8_3_S" from="N_8_3" to="N_7_3" type="grid_street"/>
    <edge id="E_V_0_4_N" from="N_0_4" to="N_1_4" type="grid_street"/>
    <edge id="E_V_1_4_S" from="N_1_4" to="N_0_4" type="grid_street"/>
    <edge id="E_V_1_4_N" from="N_1_4" to="N_2_4" type="grid_street"/>
    <edge id="E_V_2_4_S" from="N_2_4" to="N_1_4" type="grid_street"/>
    <edge id="E_V_2_4_N" from="N_2_4" to="N_3_4" type="grid_street"/>
    <edge id="E_V_3_4_S" from="N_3_4" to="N_2_4" type="grid_street"/>
    <edge id="E_V_3_4_N" from="N_3_4" to="N_4_4" type="grid_street"/>
    <edge id="E_V_4_4_S" from="N_4_4" to="N_3_4" type="grid_street"/>
    <edge id="E_V_4_4_N" from="N_4_4" to="N_5_4" type="grid_street"/>
    <edge id="E_V_5_4_S" from="N_5_4" to="N_4_4" type="grid_street"/>
    <edge id="E_V_5_4_N" from="N_5_4" to="N_6_4" type="grid_street"/>
    <edge id="E_V_6_4_S" from="N_6_4" to="N_5_4" type="grid_street"/>
    <edge id="E_V_6_4_N" from="N_6_4" to="N_7_4" type="grid_street"/>
    <edge id="E_V_7_4_S" from="N_7_4" to="N_6_4" type="grid_street"/>
    <edge id="E_V_7_4_N" from="N_7_4" to="N_8_4" type="grid_street"/>
    <edge id="E_V_8_4_S" from="N_8_4" to="N_7_4" type="grid_street"/>
    <edge id="E_V_0_5_N" from="N_0_5" to="N_1_5" type="grid_street"/>
    <edge id="E_V_1_5_S" from="N_1_5" to="N_0_5" type="grid_street"/>
    <edge id="E_V_1_5_N" from="N_1_5" to="N_2_5" type="grid_street"/>
    <edge id="E_V_2_5_S" from="N_2_5" to="N_1_5" type="grid_street"/>
    <edge id="E_V_2_5_N" from="N_2_5" to="N_3_5" type="grid_street"/>
    <edge id="E_V_3_5_S" from="N_3_5" to="N_2_5" type="grid_street"/>
    <edge id="E_V_3_5_N" from="N_3_5" to="N_4_5" type="grid_street"/>
    <edge id="E_V_4_5_S" from="N_4_5" to="N_3_5" type="grid_street"/>
    <edge id="E_V_4_5_N" from="N_4_5" to="N_5_5" type="grid_street"/>
    <edge id="E_V_5_5_S" from="N_5_5" to="N_4_5" type="grid_street"/>
    <edge id="E_V_5_5_N" from="N_5_5" to="N_6_5" type="grid_street"/>
    <edge id="E_V_6_5_S" from="N_6_5" to="N_5_5" type="grid_street"/>
    <edge id="E_V_6_5_N" from="N_6_5" to="N_7_5" type="grid_street"/>
    <edge id="E_V_7_5_S" from="N_7_5" to="N_6_5" type="grid_street"/>
    <edge id="E_V_7_5_N" from="N_7_5" to="N_8_5" type="grid_street"/>
    <edge id="E_V_8_5_S" from="N_8_5" to="N_7_5" type="grid_street"/>
    <edge id="E_V_0_6_N" from="N_0_6" to="N_1_6" type="grid_street"/>
    <edge id="E_V_1_6_S" from="N_1_6" to="N_0_6" type="grid_street"/>
    <edge id="E_V_1_6_N" from="N_1_6" to="N_2_6" type="grid_street"/>
    <edge id="E_V_2_6_S" from="N_2_6" to="N_1_6" type="grid_street"/>
    <edge id="E_V_2_6_N" from="N_2_6" to="N_3_6" type="grid_street"/>
    <edge id="E_V_3_6_S" from="N_3_6" to="N_2_6" type="grid_street"/>
    <edge id="E_V_3_6_N" from="N_3_6" to="N_4_6" type="grid_street"/>
    <edge id="E_V_4_6_S" from="N_4_6" to="N_3_6" type="grid_street"/>
    <edge id="E_V_4_6_N" from="N_4_6" to="N_5_6" type="grid_street"/>
    <edge id="E_V_5_6_S" from="N_5_6" to="N_4_6" type="grid_street"/>
    <edge id="E_V_5_6_N" from="N_5_6" to="N_6_6" type="grid_street"/>
    <edge id="E_V_6_6_S" from="N_6_6" to="N_5_6" type="grid_street"/>
    <edge id="E_V_6_6_N" from="N_6_6" to="N_7_6" type="grid_street"/>
    <edge id="E_V_7_6_S" from="N_7_6" to="N_6_6" type="grid_street"/>
    <edge id="E_V_7_6_N" from="N_7_6" to="N_8_6" type="grid_street"/>
    <edge id="E_V_8_6_S" from="N_8_6" to="N_7_6" type="grid_street"/>
    <edge id="E_V_0_7_N" from="N_0_7" to="N_1_7" type="grid_street"/>
    <edge id="E_V_1_7_S" from="N_1_7" to="N_0_7" type="grid_street"/>
    <edge id="E_V_1_7_N" from="N_1_7" to="N_2_7" type="grid_street"/>
    <edge id="E_V_2_7_S" from="N_2_7" to="N_1_7" type="grid_street"/>
    <edge id="E_V_2_7_N" from="N_2_7" to="N_3_7" type="grid_street"/>
    <edge id="E_V_3_7_S" from="N_3_7" to="N_2_7" type="grid_street"/>
    <edge id="E_V_3_7_N" from="N_3_7" to="N_4_7" type="grid_street"/>
    <edge id="E_V_4_7_S" from="N_4_7" to="N_3_7" type="grid_street"/>
    <edge id="E_V_4_7_N" from="N_4_7" to="N_5_7" type="grid_street"/>
    <edge id="E_V_5_7_S" from="N_5_7" to="N_4_7" type="grid_street"/>
    <edge id="E_V_5_7_N" from="N_5_7" to="N_6_7" type="grid_street"/>
    <edge id="E_V_6_7_S" from="N_6_7" to="N_5_7" type="grid_street"/>
    <edge id="E_V_6_7_N" from="N_6_7" to="N_7_7" type="grid_street"/>
    <edge id="E_V_7_7_S" from="N_7_7" to="N_6_7" type="grid_street"/>
    <edge id="E_V_7_7_N" from="N_7_7" to="N_8_7" type="grid_street"/>
    <edge id="E_V_8_7_S" from="N_8_7" to="N_7_7" type="grid_street"/>
    <edge id="E_V_0_8_N" from="N_0_8" to="N_1_8" type="grid_street"/>
    <edge id="E_V_1_8_S" from="N_1_8" to="N_0_8" type="grid_street"/>
    <edge id="E_V_1_8_N" from="N_1_8" to="N_2_8" type="grid_street"/>
    <edge id="E_V_2_8_S" from="N_2_8" to="N_1_8" type="grid_street"/>
    <edge id="E_V_2_8_N" from="N_2_8" to="N_3_8" type="grid_street"/>
    <edge id="E_V_3_8_S" from="N_3_8" to="N_2_8" type="grid_street"/>
    <edge id="E_V_3_8_N" from="N_3_8" to="N_4_8" type="grid_street"/>
    <edge id="E_V_4_8_S" from="N_4_8" to="N_3_8" type="grid_street"/>
    <edge id="E_V_4_8_N" from="N_4_8" to="N_5_8" type="grid_street"/>
    <edge id="E_V_5_8_S" from="N_5_8" to="N_4_8" type="grid_street"/>
    <edge id="E_V_5_8_N" from="N_5_8" to="N_6_8" type="grid_street"/>
    <edge id="E_V_6_8_S" from="N_6_8" to="N_5_8" type="grid_street"/>
    <edge id="E_V_6_8_N" from="N_6_8" to="N_7_8" type="grid_street"/>
    <edge id="E_V_7_8_S" from="N_7_8" to="N_6_8" type="grid_street"/>
    <edge id="E_V_7_8_N" from="N_7_8" to="N_8_8" type="grid_street"/>
    <edge id="E_V_8_8_S" from="N_8_8" to="N_7_8" type="grid_street"/>
</edges>