<?xml version="1.0" ?>
<nodes xmlns:xsi="http://www.w3.org/2001/XMLSchema-instance" xsi:noNamespaceSchemaLocation="http://sumo.dlr.de/xsd/nodes_file.xsd">
    <node id="N_0_0" x="0.0" y="0.0" type="priority"/>
    <node id="N_0_1" x="500.0" y="0.0" type="priority"/>
    <node id="N_0_2" x="1000.0" y="0.0" type="priority"/>
    <node id="N_0_3" x="1500.0" y="0.0" type="priority"/>
    <node id="N_0_4" x="2000.0" y="0.0" type="priority"/>
    <node id="N_0_5" x="2500.0" y="0.0" type="priority"/>
    <node id="N_0_6" x="3000.0" y="0.0" type="priority"/>
    <node id="N_0_7" x="3500.0" y="0.0" type="priority"/>
    <node id="N_0_8" x="4000.0" y="0.0" type="priority"/>
    <node id="N_1_0" x="0.0" y="500.0" type="priority"/>
    <node id="N_1_1" x="500.0" y="500.0" type="priority"/>
    <node id="N_1_2" x="1000.0" y="500.0" type="priority"/>
    <node id="N_1_3" x="1500.0" y="500.0" type="priority"/>
    <node id="N_1_4" x="2000.0" y="500.0" type="priority"/>
    <node id="N_1_5" x="2500.0" y="500.0" type="priority"/>
    <node id="N_1_6" x="3000.0" y="500.0" type="priority"/>
    <node id="N_1_7" x="3500.0" y="500.0" type="priority"/>
    <node id="N_1_8" x="4000.0" y="500.0" type="priority"/>
    <node id="N_2_0" x="0.0" y="1000.0" type="priority"/>
    <node id="N_2_1" x="500.0" y="1000.0" type="priority"/>
    <node id="N_2_2" x="1000.0" y="1000.0" type="priority"/>
    <node id="N_2_3" x="1500.0" y="1000.0" type="priority"/>
    <node id="N_2_4" x="2000.0" y="1000.0" type="priority"/>
    <node id="N_2_5" x="2500.0" y="1000.0" type="priority"/>
    <node id="N_2_6" x="3000.0" y="1000.0" type="priority"/>
    <node id="N_2_7" x="3500.0" y="1000.0" type="priority"/>
    <node id="N_2_8" x="4000.0" y="1000.0" type="priority"/>
    <node id="N_3_0" x="0.0" y="1500.0" type="priority"/>
    <node id="N_3_1" x="500.0" y="1500.0" type="priority"/>
    <node id="N_3_2" x="1000.0" y="1500.0" type="priority"/>
    <node id="N_3_3" x="1500.0" y="1500.0" type="priority"/>
    <node id="N_3_4" x="2000.0" y="1500.0" type="priority"/>
    <node id="N_3_5" x="2500.0" y="1500.0" type="priority"/>
    <node id="N_3_6" x="3000.0" y="1500.0" type="priority"/>
    <node id="N_3_7" x="3500.0" y="1500.0" type="priority"/>
    <node id="N_3_8" x="4000.0" y="1500.0" type="priority"/>
    <node id="N_4_0" x="0.0" y="2000.0" type="priority"/>
    <node id="N_4_1" x="500.0" y="2000.0" type="priority"/>
    <node id="N_4_2" x="1000.0" y="2000.0" type="priority"/>
    <node id="N_4_3" x="1500.0" y="2000.0" type="priority"/>
    <node id="N_4_4" x="2000.0" y="2000.0" type="priority"/>
    <node id="N_4_5" x="2500.0" y="2000.0" type="priority"/>
    <node id="N_4_6" x="3000.0" y="2000.0" type="priority"/>
    <node id="N_4_7" x="3500.0" y="2000.0" type="priority"/>
    <node id="N_4_8" x="4000.0" y="2000.0" type="priority"/>
    <node id="N_5_0" x="0.0" y="2500.0" type="priority"/>
    <node id="N_5_1" x="500.0" y="2500.0" type="priority"/>
    <node id="N_5_2" x="1000.0" y="2500.0" type="priority"/>
    <node id="N_5_3" x="1500.0" y="2500.0" type="priority"/>
    <node id="N_5_4" x="2000.0" y="2500.0" type="priority"/>
    <node id="N_5_5" x="2500.0" y="2500.0" type="priority"/>
    <node id="N_5_6" x="3000.0" y="2500.0" type="priority"/>
    <node id="N_5_7" x="3500.0" y="2500.0" type="priority"/>
    <node id="N_5_8" x="4000.0" y="2500.0" type="priority"/>
    <node id="N_6_0" x="0.0" y="3000.0" type="priority"/>
    <node id="N_6_1" x="500.0" y="3000.0" type="priority"/>
    <node id="N_6_2" x="1000.0" y="3000.0" type="priority"/>
    <node id="N_6_3" x="1500.0" y="3000.0" type="priority"/>
    <node id="N_6_4" x="2000.0" y="3000.0" type="priority"/>
    <node id="N_6_5" x="2500.0" y="3000.0" type="priority"/>
    <node id="N_6_6" x="3000.0" y="3000.0" type="priority"/>
    <node id="N_6_7" x="3500.0" y="3000.0" type="priority"/>
    <node id="N_6_8" x="4000.0" y="3000.0" type="priority"/>
    <node id="N_7_0" x="0.0" y="3500.0" type="priority"/>
    <node id="N_7_1" x="500.0" y="3500.0" type="priority"/>
    <node id="N_7_2" x="1000.0" y="3500.0" type="priority"/>
    <node id="N_7_3" x="1500.0" y="3500.0" type="priority"/>
    <node id="N_7_4" x="2000.0" y="3500.0" type="priority"/>
    <node id="N_7_5" x="2500.0" y="3500.0" type="priority"/>
    <node id="N_7_6" x="3000.0" y="3500.0" type="priority"/>
    <node id="N_7_7" x="3500.0" y="3500.0" type="priority"/>
    <node id="N_7_8" x="4000.0" y="3500.0" type="priority"/>
    <node id="N_8_0" x="0.0" y="4000.0" type="priority"/>
    <node id="N_8_1" x="500.0" y="4000.0" type="priority"/>
    <node id="N_8_2" x="1000.0" y="4000.0" type="priority"/>
    <node id="N_8_3" x="1500.0" y="4000.0" type="priority"/>
    <node id="N_8_4" x="2000.0" y="4000.0" type="priority"/>
    <node id="N_8_5" x="2500.0" y="4000.0" type="priority"/>
    <node id="N_8_6" x="3000.0" y="4000.0" type="priority"/>
    <node id="N_8_7" x="3500.0" y="4000.0" type="priority"/>
    <node id="N_8_8" x="4000.0" y="4000.0" type="priority"/>
</nodes>