<?xml version="1.0" encoding="UTF-8"?>

<!-- generated on 2025-11-23 21:30:06 by Eclipse SUMO netconvert Version 1.23.1
<netconvertConfiguration xmlns:xsi="http://www.w3.org/2001/XMLSchema-instance" xsi:noNamespaceSchemaLocation="http://sumo.dlr.de/xsd/netconvertConfiguration.xsd">

    <input>
        <node-files value="grid_network_fed/grid.nod.xml"/>
        <edge-files value="grid_network_fed/grid.edg.xml"/>
        <type-files value="grid_network_fed/grid.typ.xml"/>
    </input>

    <output>
        <output-file value="grid_network_fed/grid.net.xml"/>
    </output>

    <junctions>
        <junctions.corner-detail value="2"/>
        <junctions.limit-turn-speed value="8"/>
    </junctions>

</netconvertConfiguration>
-->

<net version="1.20" junctionCornerDetail="2" limitTurnSpeed="8.00" xmlns:xsi="http://www.w3.org/2001/XMLSchema-instance" xsi:noNamespaceSchemaLocation="http://sumo.dlr.de/xsd/net_file.xsd">

    <location netOffset="0.00,0.00" convBoundary="0.00,0.00,4000.00,4000.00" origBoundary="0.00,0.00,4000.00,4000.00" projParameter="!"/>

    <type id="grid_street" priority="8" numLanes="3" speed="16.67" width="3.50"/>

    <edge id=":N_0_0_0" function="internal">
        <lane id=":N_0_0_0_0" index="0" speed="14.03" length="31.05" width="3.50" shape="-8.75,10.50 -7.55,2.08 -3.94,-3.94 2.08,-7.55 10.50,-8.75"/>
        <lane id=":N_0_0_0_1" index="1" speed="12.74" length="25.40" width="3.50" shape="-5.25,10.50 -4.27,3.61 -1.31,-1.31 3.61,-4.27 10.50,-5.25"/>
        <lane id=":N_0_0_0_2" index="2" speed="11.30" length="19.76" width="3.50" shape="-1.75,10.50 -0.98,5.14 1.31,1.31 5.14,-0.98 10.50,-1.75"/>
    </edge>
    <edge id=":N_0_0_3" function="internal">
        <lane id=":N_0_0_3_0" index="0" speed="4.92" length="2.82" width="3.50" shape="10.50,8.75 9.73,8.86 9.19,9.19 8.86,9.73 8.75,10.50"/>
        <lane id=":N_0_0_3_1" index="1" speed="7.66" length="8.47" width="3.50" shape="10.50,5.25 8.20,5.58 6.56,6.56 5.58,8.20 5.25,10.50"/>
        <lane id=":N_0_0_3_2" index="2" speed="9.66" length="14.11" width="3.50" shape="10.50,1.75 6.67,2.30 3.94,3.94 2.30,6.67 1.75,10.50"/>
    </edge>
    <edge id=":N_0_1_0" function="internal">
        <lane id=":N_0_1_0_0" index="0" speed="7.98" length="9.27" width="3.50" shape="491.25,14.50 490.89,11.98 489.81,10.19 488.02,9.11 485.50,8.75"/>
    </edge>
    <edge id=":N_0_1_1" function="internal">
        <lane id=":N_0_1_1_0" index="0" speed="14.20" length="31.85" width="3.50" shape="494.75,14.50 495.98,5.86 499.69,-0.31 505.86,-4.02 514.50,-5.25"/>
        <lane id=":N_0_1_1_1" index="1" speed="12.93" length="26.21" width="3.50" shape="498.25,14.50 499.27,7.39 502.31,2.31 507.39,-0.73 514.50,-1.75"/>
    </edge>
    <edge id=":N_0_1_3" function="internal">
        <lane id=":N_0_1_3_0" index="0" speed="4.60" length="5.11" width="3.50" shape="498.25,14.50 499.12,13.19 500.00,12.75 500.88,13.19 501.75,14.50"/>
    </edge>
    <edge id=":N_0_1_4" function="internal">
        <lane id=":N_0_1_4_0" index="0" speed="7.98" length="9.27" width="3.50" shape="514.50,8.75 511.98,9.11 510.19,10.19 509.11,11.98 508.75,14.50"/>
    </edge>
    <edge id=":N_0_1_5" function="internal">
        <lane id=":N_0_1_5_0" index="0" speed="16.67" length="29.00" width="3.50" shape="514.50,8.75 485.50,8.75"/>
        <lane id=":N_0_1_5_1" index="1" speed="16.67" length="29.00" width="3.50" shape="514.50,5.25 485.50,5.25"/>
        <lane id=":N_0_1_5_2" index="2" speed="16.67" length="29.00" width="3.50" shape="514.50,1.75 485.50,1.75"/>
    </edge>
    <edge id=":N_0_1_8" function="internal">
        <lane id=":N_0_1_8_0" index="0" speed="4.60" length="1.58" width="3.50" shape="514.50,1.75 513.19,0.88"/>
    </edge>
    <edge id=":N_0_1_15" function="internal">
        <lane id=":N_0_1_15_0" index="0" speed="4.60" length="3.53" width="3.50" shape="513.19,0.88 512.75,0.00 513.19,-0.88 514.50,-1.75"/>
    </edge>
    <edge id=":N_0_1_9" function="internal">
        <lane id=":N_0_1_9_0" index="0" speed="16.67" length="29.00" width="3.50" shape="485.50,-8.75 514.50,-8.75"/>
        <lane id=":N_0_1_9_1" index="1" speed="16.67" length="29.00" width="3.50" shape="485.50,-5.25 514.50,-5.25"/>
        <lane id=":N_0_1_9_2" index="2" speed="16.67" length="29.00" width="3.50" shape="485.50,-1.75 514.50,-1.75"/>
    </edge>
    <edge id=":N_0_1_12" function="internal">
        <lane id=":N_0_1_12_0" index="0" speed="13.59" length="7.33" width="3.50" shape="485.50,-1.75 492.78,-0.89"/>
        <lane id=":N_0_1_12_1" index="1" speed="12.93" length="6.07" width="3.50" shape="485.50,-1.75 491.51,-0.89"/>
    </edge>
    <edge id=":N_0_1_14" function="internal">
        <lane id=":N_0_1_14_0" index="0" speed="4.60" length="1.58" width="3.50" shape="485.50,-1.75 486.81,-0.88"/>
    </edge>
    <edge id=":N_0_1_16" function="internal">
        <lane id=":N_0_1_16_0" index="0" speed="13.59" length="21.75" width="3.50" shape="492.78,-0.89 494.14,-0.73 500.31,2.31 504.02,7.39 505.25,14.50"/>
        <lane id=":N_0_1_16_1" index="0" speed="12.93" length="20.13" width="3.50" shape="491.51,-0.89 492.61,-0.73 497.69,2.31 500.73,7.39 501.75,14.50"/>
    </edge>
    <edge id=":N_0_1_17" function="internal">
        <lane id=":N_0_1_17_0" index="0" speed="4.60" length="3.53" width="3.50" shape="486.81,-0.88 487.25,0.00 486.81,0.88 485.50,1.75"/>
    </edge>
    <edge id=":N_0_2_0" function="internal">
        <lane id=":N_0_2_0_0" index="0" speed="7.98" length="9.27" width="3.50" shape="991.25,14.50 990.89,11.98 989.81,10.19 988.02,9.11 985.50,8.75"/>
    </edge>
    <edge id=":N_0_2_1" function="internal">
        <lane id=":N_0_2_1_0" index="0" speed="14.20" length="31.85" width="3.50" shape="994.75,14.50 995.98,5.86 999.69,-0.31 1005.86,-4.02 1014.50,-5.25"/>
        <lane id=":N_0_2_1_1" index="1" speed="12.93" length="26.21" width="3.50" shape="998.25,14.50 999.27,7.39 1002.31,2.31 1007.39,-0.73 1014.50,-1.75"/>
    </edge>
    <edge id=":N_0_2_3" function="internal">
        <lane id=":N_0_2_3_0" index="0" speed="4.60" length="5.11" width="3.50" shape="998.25,14.50 999.12,13.19 1000.00,12.75 1000.88,13.19 1001.75,14.50"/>
    </edge>
    <edge id=":N_0_2_4" function="internal">
        <lane id=":N_0_2_4_0" index="0" speed="7.98" length="9.27" width="3.50" shape="1014.50,8.75 1011.98,9.11 1010.19,10.19 1009.11,11.98 1008.75,14.50"/>
    </edge>
    <edge id=":N_0_2_5" function="internal">
        <lane id=":N_0_2_5_0" index="0" speed="16.67" length="29.00" width="3.50" shape="1014.50,8.75 985.50,8.75"/>
        <lane id=":N_0_2_5_1" index="1" speed="16.67" length="29.00" width="3.50" shape="1014.50,5.25 985.50,5.25"/>
        <lane id=":N_0_2_5_2" index="2" speed="16.67" length="29.00" width="3.50" shape="1014.50,1.75 985.50,1.75"/>
    </edge>
    <edge id=":N_0_2_8" function="internal">
        <lane id=":N_0_2_8_0" index="0" speed="4.60" length="1.58" width="3.50" shape="1014.50,1.75 1013.19,0.88"/>
    </edge>
    <edge id=":N_0_2_15" function="internal">
        <lane id=":N_0_2_15_0" index="0" speed="4.60" length="3.53" width="3.50" shape="1013.19,0.88 1012.75,0.00 1013.19,-0.88 1014.50,-1.75"/>
    </edge>
    <edge id=":N_0_2_9" function="internal">
        <lane id=":N_0_2_9_0" index="0" speed="16.67" length="29.00" width="3.50" shape="985.50,-8.75 1014.50,-8.75"/>
        <lane id=":N_0_2_9_1" index="1" speed="16.67" length="29.00" width="3.50" shape="985.50,-5.25 1014.50,-5.25"/>
        <lane id=":N_0_2_9_2" index="2" speed="16.67" length="29.00" width="3.50" shape="985.50,-1.75 1014.50,-1.75"/>
    </edge>
    <edge id=":N_0_2_12" function="internal">
        <lane id=":N_0_2_12_0" index="0" speed="13.59" length="7.33" width="3.50" shape="985.50,-1.75 992.78,-0.89"/>
        <lane id=":N_0_2_12_1" index="1" speed="12.93" length="6.07" width="3.50" shape="985.50,-1.75 991.51,-0.89"/>
    </edge>
    <edge id=":N_0_2_14" function="internal">
        <lane id=":N_0_2_14_0" index="0" speed="4.60" length="1.58" width="3.50" shape="985.50,-1.75 986.81,-0.88"/>
    </edge>
    <edge id=":N_0_2_16" function="internal">
        <lane id=":N_0_2_16_0" index="0" speed="13.59" length="21.75" width="3.50" shape="992.78,-0.89 994.14,-0.73 1000.31,2.31 1004.02,7.39 1005.25,14.50"/>
        <lane id=":N_0_2_16_1" index="0" speed="12.93" length="20.13" width="3.50" shape="991.51,-0.89 992.61,-0.73 997.69,2.31 1000.73,7.39 1001.75,14.50"/>
    </edge>
    <edge id=":N_0_2_17" function="internal">
        <lane id=":N_0_2_17_0" index="0" speed="4.60" length="3.53" width="3.50" shape="986.81,-0.88 987.25,0.00 986.81,0.88 985.50,1.75"/>
    </edge>
    <edge id=":N_0_3_0" function="internal">
        <lane id=":N_0_3_0_0" index="0" speed="7.98" length="9.27" width="3.50" shape="1491.25,14.50 1490.89,11.98 1489.81,10.19 1488.02,9.11 1485.50,8.75"/>
    </edge>
    <edge id=":N_0_3_1" function="internal">
        <lane id=":N_0_3_1_0" index="0" speed="14.20" length="31.85" width="3.50" shape="1494.75,14.50 1495.98,5.86 1499.69,-0.31 1505.86,-4.02 1514.50,-5.25"/>
        <lane id=":N_0_3_1_1" index="1" speed="12.93" length="26.21" width="3.50" shape="1498.25,14.50 1499.27,7.39 1502.31,2.31 1507.39,-0.73 1514.50,-1.75"/>
    </edge>
    <edge id=":N_0_3_3" function="internal">
        <lane id=":N_0_3_3_0" index="0" speed="4.60" length="5.11" width="3.50" shape="1498.25,14.50 1499.12,13.19 1500.00,12.75 1500.88,13.19 1501.75,14.50"/>
    </edge>
    <edge id=":N_0_3_4" function="internal">
        <lane id=":N_0_3_4_0" index="0" speed="7.98" length="9.27" width="3.50" shape="1514.50,8.75 1511.98,9.11 1510.19,10.19 1509.11,11.98 1508.75,14.50"/>
    </edge>
    <edge id=":N_0_3_5" function="internal">
        <lane id=":N_0_3_5_0" index="0" speed="16.67" length="29.00" width="3.50" shape="1514.50,8.75 1485.50,8.75"/>
        <lane id=":N_0_3_5_1" index="1" speed="16.67" length="29.00" width="3.50" shape="1514.50,5.25 1485.50,5.25"/>
        <lane id=":N_0_3_5_2" index="2" speed="16.67" length="29.00" width="3.50" shape="1514.50,1.75 1485.50,1.75"/>
    </edge>
    <edge id=":N_0_3_8" function="internal">
        <lane id=":N_0_3_8_0" index="0" speed="4.60" length="1.58" width="3.50" shape="1514.50,1.75 1513.19,0.88"/>
    </edge>
    <edge id=":N_0_3_15" function="internal">
        <lane id=":N_0_3_15_0" index="0" speed="4.60" length="3.53" width="3.50" shape="1513.19,0.88 1512.75,0.00 1513.19,-0.88 1514.50,-1.75"/>
    </edge>
    <edge id=":N_0_3_9" function="internal">
        <lane id=":N_0_3_9_0" index="0" speed="16.67" length="29.00" width="3.50" shape="1485.50,-8.75 1514.50,-8.75"/>
        <lane id=":N_0_3_9_1" index="1" speed="16.67" length="29.00" width="3.50" shape="1485.50,-5.25 1514.50,-5.25"/>
        <lane id=":N_0_3_9_2" index="2" speed="16.67" length="29.00" width="3.50" shape="1485.50,-1.75 1514.50,-1.75"/>
    </edge>
    <edge id=":N_0_3_12" function="internal">
        <lane id=":N_0_3_12_0" index="0" speed="13.59" length="7.33" width="3.50" shape="1485.50,-1.75 1492.78,-0.89"/>
        <lane id=":N_0_3_12_1" index="1" speed="12.93" length="6.07" width="3.50" shape="1485.50,-1.75 1491.51,-0.89"/>
    </edge>
    <edge id=":N_0_3_14" function="internal">
        <lane id=":N_0_3_14_0" index="0" speed="4.60" length="1.58" width="3.50" shape="1485.50,-1.75 1486.81,-0.88"/>
    </edge>
    <edge id=":N_0_3_16" function="internal">
        <lane id=":N_0_3_16_0" index="0" speed="13.59" length="21.75" width="3.50" shape="1492.78,-0.89 1494.14,-0.73 1500.31,2.31 1504.02,7.39 1505.25,14.50"/>
        <lane id=":N_0_3_16_1" index="0" speed="12.93" length="20.13" width="3.50" shape="1491.51,-0.89 1492.61,-0.73 1497.69,2.31 1500.73,7.39 1501.75,14.50"/>
    </edge>
    <edge id=":N_0_3_17" function="internal">
        <lane id=":N_0_3_17_0" index="0" speed="4.60" length="3.53" width="3.50" shape="1486.81,-0.88 1487.25,0.00 1486.81,0.88 1485.50,1.75"/>
    </edge>
    <edge id=":N_0_4_0" function="internal">
        <lane id=":N_0_4_0_0" index="0" speed="7.98" length="9.27" width="3.50" shape="1991.25,14.50 1990.89,11.98 1989.81,10.19 1988.02,9.11 1985.50,8.75"/>
    </edge>
    <edge id=":N_0_4_1" function="internal">
        <lane id=":N_0_4_1_0" index="0" speed="14.20" length="31.85" width="3.50" shape="1994.75,14.50 1995.98,5.86 1999.69,-0.31 2005.86,-4.02 2014.50,-5.25"/>
        <lane id=":N_0_4_1_1" index="1" speed="12.93" length="26.21" width="3.50" shape="1998.25,14.50 1999.27,7.39 2002.31,2.31 2007.39,-0.73 2014.50,-1.75"/>
    </edge>
    <edge id=":N_0_4_3" function="internal">
        <lane id=":N_0_4_3_0" index="0" speed="4.60" length="5.11" width="3.50" shape="1998.25,14.50 1999.12,13.19 2000.00,12.75 2000.88,13.19 2001.75,14.50"/>
    </edge>
    <edge id=":N_0_4_4" function="internal">
        <lane id=":N_0_4_4_0" index="0" speed="7.98" length="9.27" width="3.50" shape="2014.50,8.75 2011.98,9.11 2010.19,10.19 2009.11,11.98 2008.75,14.50"/>
    </edge>
    <edge id=":N_0_4_5" function="internal">
        <lane id=":N_0_4_5_0" index="0" speed="16.67" length="29.00" width="3.50" shape="2014.50,8.75 1985.50,8.75"/>
        <lane id=":N_0_4_5_1" index="1" speed="16.67" length="29.00" width="3.50" shape="2014.50,5.25 1985.50,5.25"/>
        <lane id=":N_0_4_5_2" index="2" speed="16.67" length="29.00" width="3.50" shape="2014.50,1.75 1985.50,1.75"/>
    </edge>
    <edge id=":N_0_4_8" function="internal">
        <lane id=":N_0_4_8_0" index="0" speed="4.60" length="1.58" width="3.50" shape="2014.50,1.75 2013.19,0.88"/>
    </edge>
    <edge id=":N_0_4_15" function="internal">
        <lane id=":N_0_4_15_0" index="0" speed="4.60" length="3.53" width="3.50" shape="2013.19,0.88 2012.75,0.00 2013.19,-0.88 2014.50,-1.75"/>
    </edge>
    <edge id=":N_0_4_9" function="internal">
        <lane id=":N_0_4_9_0" index="0" speed="16.67" length="29.00" width="3.50" shape="1985.50,-8.75 2014.50,-8.75"/>
        <lane id=":N_0_4_9_1" index="1" speed="16.67" length="29.00" width="3.50" shape="1985.50,-5.25 2014.50,-5.25"/>
        <lane id=":N_0_4_9_2" index="2" speed="16.67" length="29.00" width="3.50" shape="1985.50,-1.75 2014.50,-1.75"/>
    </edge>
    <edge id=":N_0_4_12" function="internal">
        <lane id=":N_0_4_12_0" index="0" speed="13.59" length="7.33" width="3.50" shape="1985.50,-1.75 1992.78,-0.89"/>
        <lane id=":N_0_4_12_1" index="1" speed="12.93" length="6.07" width="3.50" shape="1985.50,-1.75 1991.51,-0.89"/>
    </edge>
    <edge id=":N_0_4_14" function="internal">
        <lane id=":N_0_4_14_0" index="0" speed="4.60" length="1.58" width="3.50" shape="1985.50,-1.75 1986.81,-0.88"/>
    </edge>
    <edge id=":N_0_4_16" function="internal">
        <lane id=":N_0_4_16_0" index="0" speed="13.59" length="21.75" width="3.50" shape="1992.78,-0.89 1994.14,-0.73 2000.31,2.31 2004.02,7.39 2005.25,14.50"/>
        <lane id=":N_0_4_16_1" index="0" speed="12.93" length="20.13" width="3.50" shape="1991.51,-0.89 1992.61,-0.73 1997.69,2.31 2000.73,7.39 2001.75,14.50"/>
    </edge>
    <edge id=":N_0_4_17" function="internal">
        <lane id=":N_0_4_17_0" index="0" speed="4.60" length="3.53" width="3.50" shape="1986.81,-0.88 1987.25,0.00 1986.81,0.88 1985.50,1.75"/>
    </edge>
    <edge id=":N_0_5_0" function="internal">
        <lane id=":N_0_5_0_0" index="0" speed="7.98" length="9.27" width="3.50" shape="2491.25,14.50 2490.89,11.98 2489.81,10.19 2488.02,9.11 2485.50,8.75"/>
    </edge>
    <edge id=":N_0_5_1" function="internal">
        <lane id=":N_0_5_1_0" index="0" speed="14.20" length="31.85" width="3.50" shape="2494.75,14.50 2495.98,5.86 2499.69,-0.31 2505.86,-4.02 2514.50,-5.25"/>
        <lane id=":N_0_5_1_1" index="1" speed="12.93" length="26.21" width="3.50" shape="2498.25,14.50 2499.27,7.39 2502.31,2.31 2507.39,-0.73 2514.50,-1.75"/>
    </edge>
    <edge id=":N_0_5_3" function="internal">
        <lane id=":N_0_5_3_0" index="0" speed="4.60" length="5.11" width="3.50" shape="2498.25,14.50 2499.12,13.19 2500.00,12.75 2500.88,13.19 2501.75,14.50"/>
    </edge>
    <edge id=":N_0_5_4" function="internal">
        <lane id=":N_0_5_4_0" index="0" speed="7.98" length="9.27" width="3.50" shape="2514.50,8.75 2511.98,9.11 2510.19,10.19 2509.11,11.98 2508.75,14.50"/>
    </edge>
    <edge id=":N_0_5_5" function="internal">
        <lane id=":N_0_5_5_0" index="0" speed="16.67" length="29.00" width="3.50" shape="2514.50,8.75 2485.50,8.75"/>
        <lane id=":N_0_5_5_1" index="1" speed="16.67" length="29.00" width="3.50" shape="2514.50,5.25 2485.50,5.25"/>
        <lane id=":N_0_5_5_2" index="2" speed="16.67" length="29.00" width="3.50" shape="2514.50,1.75 2485.50,1.75"/>
    </edge>
    <edge id=":N_0_5_8" function="internal">
        <lane id=":N_0_5_8_0" index="0" speed="4.60" length="1.58" width="3.50" shape="2514.50,1.75 2513.19,0.88"/>
    </edge>
    <edge id=":N_0_5_15" function="internal">
        <lane id=":N_0_5_15_0" index="0" speed="4.60" length="3.53" width="3.50" shape="2513.19,0.88 2512.75,0.00 2513.19,-0.88 2514.50,-1.75"/>
    </edge>
    <edge id=":N_0_5_9" function="internal">
        <lane id=":N_0_5_9_0" index="0" speed="16.67" length="29.00" width="3.50" shape="2485.50,-8.75 2514.50,-8.75"/>
        <lane id=":N_0_5_9_1" index="1" speed="16.67" length="29.00" width="3.50" shape="2485.50,-5.25 2514.50,-5.25"/>
        <lane id=":N_0_5_9_2" index="2" speed="16.67" length="29.00" width="3.50" shape="2485.50,-1.75 2514.50,-1.75"/>
    </edge>
    <edge id=":N_0_5_12" function="internal">
        <lane id=":N_0_5_12_0" index="0" speed="13.59" length="7.33" width="3.50" shape="2485.50,-1.75 2492.78,-0.89"/>
        <lane id=":N_0_5_12_1" index="1" speed="12.93" length="6.07" width="3.50" shape="2485.50,-1.75 2491.51,-0.89"/>
    </edge>
    <edge id=":N_0_5_14" function="internal">
        <lane id=":N_0_5_14_0" index="0" speed="4.60" length="1.58" width="3.50" shape="2485.50,-1.75 2486.81,-0.88"/>
    </edge>
    <edge id=":N_0_5_16" function="internal">
        <lane id=":N_0_5_16_0" index="0" speed="13.59" length="21.75" width="3.50" shape="2492.78,-0.89 2494.14,-0.73 2500.31,2.31 2504.02,7.39 2505.25,14.50"/>
        <lane id=":N_0_5_16_1" index="0" speed="12.93" length="20.13" width="3.50" shape="2491.51,-0.89 2492.61,-0.73 2497.69,2.31 2500.73,7.39 2501.75,14.50"/>
    </edge>
    <edge id=":N_0_5_17" function="internal">
        <lane id=":N_0_5_17_0" index="0" speed="4.60" length="3.53" width="3.50" shape="2486.81,-0.88 2487.25,0.00 2486.81,0.88 2485.50,1.75"/>
    </edge>
    <edge id=":N_0_6_0" function="internal">
        <lane id=":N_0_6_0_0" index="0" speed="7.98" length="9.27" width="3.50" shape="2991.25,14.50 2990.89,11.98 2989.81,10.19 2988.02,9.11 2985.50,8.75"/>
    </edge>
    <edge id=":N_0_6_1" function="internal">
        <lane id=":N_0_6_1_0" index="0" speed="14.20" length="31.85" width="3.50" shape="2994.75,14.50 2995.98,5.86 2999.69,-0.31 3005.86,-4.02 3014.50,-5.25"/>
        <lane id=":N_0_6_1_1" index="1" speed="12.93" length="26.21" width="3.50" shape="2998.25,14.50 2999.27,7.39 3002.31,2.31 3007.39,-0.73 3014.50,-1.75"/>
    </edge>
    <edge id=":N_0_6_3" function="internal">
        <lane id=":N_0_6_3_0" index="0" speed="4.60" length="5.11" width="3.50" shape="2998.25,14.50 2999.12,13.19 3000.00,12.75 3000.88,13.19 3001.75,14.50"/>
    </edge>
    <edge id=":N_0_6_4" function="internal">
        <lane id=":N_0_6_4_0" index="0" speed="7.98" length="9.27" width="3.50" shape="3014.50,8.75 3011.98,9.11 3010.19,10.19 3009.11,11.98 3008.75,14.50"/>
    </edge>
    <edge id=":N_0_6_5" function="internal">
        <lane id=":N_0_6_5_0" index="0" speed="16.67" length="29.00" width="3.50" shape="3014.50,8.75 2985.50,8.75"/>
        <lane id=":N_0_6_5_1" index="1" speed="16.67" length="29.00" width="3.50" shape="3014.50,5.25 2985.50,5.25"/>
        <lane id=":N_0_6_5_2" index="2" speed="16.67" length="29.00" width="3.50" shape="3014.50,1.75 2985.50,1.75"/>
    </edge>
    <edge id=":N_0_6_8" function="internal">
        <lane id=":N_0_6_8_0" index="0" speed="4.60" length="1.58" width="3.50" shape="3014.50,1.75 3013.19,0.88"/>
    </edge>
    <edge id=":N_0_6_15" function="internal">
        <lane id=":N_0_6_15_0" index="0" speed="4.60" length="3.53" width="3.50" shape="3013.19,0.88 3012.75,0.00 3013.19,-0.88 3014.50,-1.75"/>
    </edge>
    <edge id=":N_0_6_9" function="internal">
        <lane id=":N_0_6_9_0" index="0" speed="16.67" length="29.00" width="3.50" shape="2985.50,-8.75 3014.50,-8.75"/>
        <lane id=":N_0_6_9_1" index="1" speed="16.67" length="29.00" width="3.50" shape="2985.50,-5.25 3014.50,-5.25"/>
        <lane id=":N_0_6_9_2" index="2" speed="16.67" length="29.00" width="3.50" shape="2985.50,-1.75 3014.50,-1.75"/>
    </edge>
    <edge id=":N_0_6_12" function="internal">
        <lane id=":N_0_6_12_0" index="0" speed="13.59" length="7.33" width="3.50" shape="2985.50,-1.75 2992.78,-0.89"/>
        <lane id=":N_0_6_12_1" index="1" speed="12.93" length="6.07" width="3.50" shape="2985.50,-1.75 2991.51,-0.89"/>
    </edge>
    <edge id=":N_0_6_14" function="internal">
        <lane id=":N_0_6_14_0" index="0" speed="4.60" length="1.58" width="3.50" shape="2985.50,-1.75 2986.81,-0.88"/>
    </edge>
    <edge id=":N_0_6_16" function="internal">
        <lane id=":N_0_6_16_0" index="0" speed="13.59" length="21.75" width="3.50" shape="2992.78,-0.89 2994.14,-0.73 3000.31,2.31 3004.02,7.39 3005.25,14.50"/>
        <lane id=":N_0_6_16_1" index="0" speed="12.93" length="20.13" width="3.50" shape="2991.51,-0.89 2992.61,-0.73 2997.69,2.31 3000.73,7.39 3001.75,14.50"/>
    </edge>
    <edge id=":N_0_6_17" function="internal">
        <lane id=":N_0_6_17_0" index="0" speed="4.60" length="3.53" width="3.50" shape="2986.81,-0.88 2987.25,0.00 2986.81,0.88 2985.50,1.75"/>
    </edge>
    <edge id=":N_0_7_0" function="internal">
        <lane id=":N_0_7_0_0" index="0" speed="7.98" length="9.27" width="3.50" shape="3491.25,14.50 3490.89,11.98 3489.81,10.19 3488.02,9.11 3485.50,8.75"/>
    </edge>
    <edge id=":N_0_7_1" function="internal">
        <lane id=":N_0_7_1_0" index="0" speed="14.20" length="31.85" width="3.50" shape="3494.75,14.50 3495.98,5.86 3499.69,-0.31 3505.86,-4.02 3514.50,-5.25"/>
        <lane id=":N_0_7_1_1" index="1" speed="12.93" length="26.21" width="3.50" shape="3498.25,14.50 3499.27,7.39 3502.31,2.31 3507.39,-0.73 3514.50,-1.75"/>
    </edge>
    <edge id=":N_0_7_3" function="internal">
        <lane id=":N_0_7_3_0" index="0" speed="4.60" length="5.11" width="3.50" shape="3498.25,14.50 3499.12,13.19 3500.00,12.75 3500.88,13.19 3501.75,14.50"/>
    </edge>
    <edge id=":N_0_7_4" function="internal">
        <lane id=":N_0_7_4_0" index="0" speed="7.98" length="9.27" width="3.50" shape="3514.50,8.75 3511.98,9.11 3510.19,10.19 3509.11,11.98 3508.75,14.50"/>
    </edge>
    <edge id=":N_0_7_5" function="internal">
        <lane id=":N_0_7_5_0" index="0" speed="16.67" length="29.00" width="3.50" shape="3514.50,8.75 3485.50,8.75"/>
        <lane id=":N_0_7_5_1" index="1" speed="16.67" length="29.00" width="3.50" shape="3514.50,5.25 3485.50,5.25"/>
        <lane id=":N_0_7_5_2" index="2" speed="16.67" length="29.00" width="3.50" shape="3514.50,1.75 3485.50,1.75"/>
    </edge>
    <edge id=":N_0_7_8" function="internal">
        <lane id=":N_0_7_8_0" index="0" speed="4.60" length="1.58" width="3.50" shape="3514.50,1.75 3513.19,0.88"/>
    </edge>
    <edge id=":N_0_7_15" function="internal">
        <lane id=":N_0_7_15_0" index="0" speed="4.60" length="3.53" width="3.50" shape="3513.19,0.88 3512.75,0.00 3513.19,-0.88 3514.50,-1.75"/>
    </edge>
    <edge id=":N_0_7_9" function="internal">
        <lane id=":N_0_7_9_0" index="0" speed="16.67" length="29.00" width="3.50" shape="3485.50,-8.75 3514.50,-8.75"/>
        <lane id=":N_0_7_9_1" index="1" speed="16.67" length="29.00" width="3.50" shape="3485.50,-5.25 3514.50,-5.25"/>
        <lane id=":N_0_7_9_2" index="2" speed="16.67" length="29.00" width="3.50" shape="3485.50,-1.75 3514.50,-1.75"/>
    </edge>
    <edge id=":N_0_7_12" function="internal">
        <lane id=":N_0_7_12_0" index="0" speed="13.59" length="7.33" width="3.50" shape="3485.50,-1.75 3492.78,-0.89"/>
        <lane id=":N_0_7_12_1" index="1" speed="12.93" length="6.07" width="3.50" shape="3485.50,-1.75 3491.51,-0.89"/>
    </edge>
    <edge id=":N_0_7_14" function="internal">
        <lane id=":N_0_7_14_0" index="0" speed="4.60" length="1.58" width="3.50" shape="3485.50,-1.75 3486.81,-0.88"/>
    </edge>
    <edge id=":N_0_7_16" function="internal">
        <lane id=":N_0_7_16_0" index="0" speed="13.59" length="21.75" width="3.50" shape="3492.78,-0.89 3494.14,-0.73 3500.31,2.31 3504.02,7.39 3505.25,14.50"/>
        <lane id=":N_0_7_16_1" index="0" speed="12.93" length="20.13" width="3.50" shape="3491.51,-0.89 3492.61,-0.73 3497.69,2.31 3500.73,7.39 3501.75,14.50"/>
    </edge>
    <edge id=":N_0_7_17" function="internal">
        <lane id=":N_0_7_17_0" index="0" speed="4.60" length="3.53" width="3.50" shape="3486.81,-0.88 3487.25,0.00 3486.81,0.88 3485.50,1.75"/>
    </edge>
    <edge id=":N_0_8_0" function="internal">
        <lane id=":N_0_8_0_0" index="0" speed="4.92" length="2.82" width="3.50" shape="3991.25,10.50 3991.14,9.73 3990.81,9.19 3990.27,8.86 3989.50,8.75"/>
        <lane id=":N_0_8_0_1" index="1" speed="7.66" length="8.47" width="3.50" shape="3994.75,10.50 3994.42,8.20 3993.44,6.56 3991.80,5.58 3989.50,5.25"/>
        <lane id=":N_0_8_0_2" index="2" speed="9.66" length="14.11" width="3.50" shape="3998.25,10.50 3997.70,6.67 3996.06,3.94 3993.33,2.30 3989.50,1.75"/>
    </edge>
    <edge id=":N_0_8_3" function="internal">
        <lane id=":N_0_8_3_0" index="0" speed="14.03" length="31.05" width="3.50" shape="3989.50,-8.75 3997.92,-7.55 4003.94,-3.94 4007.55,2.08 4008.75,10.50"/>
        <lane id=":N_0_8_3_1" index="1" speed="12.74" length="25.40" width="3.50" shape="3989.50,-5.25 3996.39,-4.27 4001.31,-1.31 4004.27,3.61 4005.25,10.50"/>
        <lane id=":N_0_8_3_2" index="2" speed="11.30" length="19.76" width="3.50" shape="3989.50,-1.75 3994.86,-0.98 3998.69,1.31 4000.98,5.14 4001.75,10.50"/>
    </edge>
    <edge id=":N_1_0_0" function="internal">
        <lane id=":N_1_0_0_0" index="0" speed="16.67" length="29.00" width="3.50" shape="-8.75,514.50 -8.75,485.50"/>
        <lane id=":N_1_0_0_1" index="1" speed="16.67" length="29.00" width="3.50" shape="-5.25,514.50 -5.25,485.50"/>
        <lane id=":N_1_0_0_2" index="2" speed="16.67" length="29.00" width="3.50" shape="-1.75,514.50 -1.75,485.50"/>
    </edge>
    <edge id=":N_1_0_3" function="internal">
        <lane id=":N_1_0_3_0" index="0" speed="13.59" length="7.33" width="3.50" shape="-1.75,514.50 -0.89,507.22"/>
        <lane id=":N_1_0_3_1" index="1" speed="12.93" length="6.07" width="3.50" shape="-1.75,514.50 -0.89,508.49"/>
    </edge>
    <edge id=":N_1_0_5" function="internal">
        <lane id=":N_1_0_5_0" index="0" speed="4.60" length="1.58" width="3.50" shape="-1.75,514.50 -0.88,513.19"/>
    </edge>
    <edge id=":N_1_0_15" function="internal">
        <lane id=":N_1_0_15_0" index="0" speed="13.59" length="21.75" width="3.50" shape="-0.89,507.22 -0.73,505.86 2.31,499.69 7.39,495.98 14.50,494.75"/>
        <lane id=":N_1_0_15_1" index="0" speed="12.93" length="20.13" width="3.50" shape="-0.89,508.49 -0.73,507.39 2.31,502.31 7.39,499.27 14.50,498.25"/>
    </edge>
    <edge id=":N_1_0_16" function="internal">
        <lane id=":N_1_0_16_0" index="0" speed="4.60" length="3.53" width="3.50" shape="-0.88,513.19 0.00,512.75 0.88,513.19 1.75,514.50"/>
    </edge>
    <edge id=":N_1_0_6" function="internal">
        <lane id=":N_1_0_6_0" index="0" speed="7.98" length="9.27" width="3.50" shape="14.50,508.75 11.98,509.11 10.19,510.19 9.11,511.98 8.75,514.50"/>
    </edge>
    <edge id=":N_1_0_7" function="internal">
        <lane id=":N_1_0_7_0" index="0" speed="14.20" length="31.85" width="3.50" shape="14.50,505.25 5.86,504.02 -0.31,500.31 -4.02,494.14 -5.25,485.50"/>
        <lane id=":N_1_0_7_1" index="1" speed="12.93" length="26.21" width="3.50" shape="14.50,501.75 7.39,500.73 2.31,497.69 -0.73,492.61 -1.75,485.50"/>
    </edge>
    <edge id=":N_1_0_9" function="internal">
        <lane id=":N_1_0_9_0" index="0" speed="4.60" length="5.11" width="3.50" shape="14.50,501.75 13.19,500.88 12.75,500.00 13.19,499.12 14.50,498.25"/>
    </edge>
    <edge id=":N_1_0_10" function="internal">
        <lane id=":N_1_0_10_0" index="0" speed="7.98" length="9.27" width="3.50" shape="8.75,485.50 9.11,488.02 10.19,489.81 11.98,490.89 14.50,491.25"/>
    </edge>
    <edge id=":N_1_0_11" function="internal">
        <lane id=":N_1_0_11_0" index="0" speed="16.67" length="29.00" width="3.50" shape="8.75,485.50 8.75,514.50"/>
        <lane id=":N_1_0_11_1" index="1" speed="16.67" length="29.00" width="3.50" shape="5.25,485.50 5.25,514.50"/>
        <lane id=":N_1_0_11_2" index="2" speed="16.67" length="29.00" width="3.50" shape="1.75,485.50 1.75,514.50"/>
    </edge>
    <edge id=":N_1_0_14" function="internal">
        <lane id=":N_1_0_14_0" index="0" speed="4.60" length="1.58" width="3.50" shape="1.75,485.50 0.88,486.81"/>
    </edge>
    <edge id=":N_1_0_17" function="internal">
        <lane id=":N_1_0_17_0" index="0" speed="4.60" length="3.53" width="3.50" shape="0.88,486.81 0.00,487.25 -0.88,486.81 -1.75,485.50"/>
    </edge>
    <edge id=":N_1_1_0" function="internal">
        <lane id=":N_1_1_0_0" index="0" speed="7.98" length="9.27" width="3.50" shape="491.25,514.50 490.89,511.98 489.81,510.19 488.02,509.11 485.50,508.75"/>
    </edge>
    <edge id=":N_1_1_1" function="internal">
        <lane id=":N_1_1_1_0" index="0" speed="16.67" length="29.00" width="3.50" shape="491.25,514.50 491.25,485.50"/>
        <lane id=":N_1_1_1_1" index="1" speed="16.67" length="29.00" width="3.50" shape="494.75,514.50 494.75,485.50"/>
        <lane id=":N_1_1_1_2" index="2" speed="16.67" length="29.00" width="3.50" shape="498.25,514.50 498.25,485.50"/>
    </edge>