<?xml version="1.0" ?>
<connections xmlns:xsi="http://www.w3.org/2001/XMLSchema-instance" xsi:noNamespaceSchemaLocation="http://sumo.dlr.de/xsd/connections_file.xsd">
    <connection from="E_H_0_1_W" to="E_V_0_0_N" fromLane="0" toLane="0" dir="r"/>
    <connection from="E_V_1_0_S" to="E_H_0_0_E" fromLane="2" toLane="0" dir="l"/>
    <connection from="E_H_0_1_E" to="E_H_0_2_E" fromLane="1" toLane="1" dir="s"/>
    <connection from="E_H_0_1_E" to="E_V_0_1_N" fromLane="2" toLane="0" dir="l"/>
    <connection from="E_H_0_2_W" to="E_H_0_1_W" fromLane="1" toLane="1" dir="s"/>
    <connection from="E_H_0_2_W" to="E_V_0_1_N" fromLane="0" toLane="0" dir="r"/>
    <connection from="E_V_1_1_S" to="E_H_0_1_E" fromLane="2" toLane="0" dir="l"/>
    <connection from="E_V_1_1_S" to="E_H_0_1_W" fromLane="0" toLane="0" dir="r"/>
    <connection from="E_H_0_2_E" to="E_H_0_3_E" fromLane="1" toLane="1" dir="s"/>
    <connection from="E_H_0_2_E" to="E_V_0_2_N" fromLane="2" toLane="0" dir="l"/>
    <connection from="E_H_0_3_W" to="E_H_0_2_W" fromLane="1" toLane="1" dir="s"/>
    <connection from="E_H_0_3_W" to="E_V_0_2_N" fromLane="0" toLane="0" dir="r"/>
    <connection from="E_V_1_2_S" to="E_H_0_2_E" fromLane="2" toLane="0" dir="l"/>
    <connection from="E_V_1_2_S" to="E_H_0_2_W" fromLane="0" toLane="0" dir="r"/>
    <connection from="E_H_0_3_E" to="E_H_0_4_E" fromLane="1" toLane="1" dir="s"/>
    <connection from="E_H_0_3_E" to="E_V_0_3_N" fromLane="2" toLane="0" dir="l"/>
    <connection from="E_H_0_4_W" to="E_H_0_3_W" fromLane="1" toLane="1" dir="s"/>
    <connection from="E_H_0_4_W" to="E_V_0_3_N" fromLane="0" toLane="0" dir="r"/>
    <connection from="E_V_1_3_S" to="E_H_0_3_E" fromLane="2" toLane="0" dir="l"/>
    <connection from="E_V_1_3_S" to="E_H_0_3_W" fromLane="0" toLane="0" dir="r"/>
    <connection from="E_H_0_4_E" to="E_H_0_5_E" fromLane="1" toLane="1" dir="s"/>
    <connection from="E_H_0_4_E" to="E_V_0_4_N" fromLane="2" toLane="0" dir="l"/>
    <connection from="E_H_0_5_W" to="E_H_0_4_W" fromLane="1" toLane="1" dir="s"/>
    <connection from="E_H_0_5_W" to="E_V_0_4_N" fromLane="0" toLane="0" dir="r"/>
    <connection from="E_V_1_4_S" to="E_H_0_4_E" fromLane="2" toLane="0" dir="l"/>
    <connection from="E_V_1_4_S" to="E_H_0_4_W" fromLane="0" toLane="0" dir="r"/>
    <connection from="E_H_0_5_E" to="E_H_0_6_E" fromLane="1" toLane="1" dir="s"/>
    <connection from="E_H_0_5_E" to="E_V_0_5_N" fromLane="2" toLane="0" dir="l"/>
    <connection from="E_H_0_6_W" to="E_H_0_5_W" fromLane="1" toLane="1" dir="s"/>
    <connection from="E_H_0_6_W" to="E_V_0_5_N" fromLane="0" toLane="0" dir="r"/>
    <connection from="E_V_1_5_S" to="E_H_0_5_E" fromLane="2" toLane="0" dir="l"/>
    <connection from="E_V_1_5_S" to="E_H_0_5_W" fromLane="0" toLane="0" dir="r"/>
    <connection from="E_H_0_6_E" to="E_H_0_7_E" fromLane="1" toLane="1" dir="s"/>
    <connection from="E_H_0_6_E" to="E_V_0_6_N" fromLane="2" toLane="0" dir="l"/>
    <connection from="E_H_0_7_W" to="E_H_0_6_W" fromLane="1" toLane="1" dir="s"/>
    <connection from="E_H_0_7_W" to="E_V_0_6_N" fromLane="0" toLane="0" dir="r"/>
    <connection from="E_V_1_6_S" to="E_H_0_6_E" fromLane="2" toLane="0" dir="l"/>
    <connection from="E_V_1_6_S" to="E_H_0_6_W" fromLane="0" toLane="0" dir="r"/>
    <connection from="E_H_0_7_E" to="E_H_0_8_E" fromLane="1" toLane="1" dir="s"/>
    <connection from="E_H_0_7_E" to="E_V_0_7_N" fromLane="2" toLane="0" dir="l"/>
    <connection from="E_H_0_8_W" to="E_H_0_7_W" fromLane="1" toLane="1" dir="s"/>
    <connection from="E_H_0_8_W" to="E_V_0_7_N" fromLane="0" toLane="0" dir="r"/>
    <connection from="E_V_1_7_S" to="E_H_0_7_E" fromLane="2" toLane="0" dir="l"/>
    <connection from="E_V_1_7_S" to="E_H_0_7_W" fromLane="0" toLane="0" dir="r"/>
    <connection from="E_H_0_8_E" to="E_V_0_8_N" fromLane="2" toLane="0" dir="l"/>
    <connection from="E_V_1_8_S" to="E_H_0_8_W" fromLane="0" toLane="0" dir="r"/>
    <connection from="E_H_1_1_W" to="E_V_1_0_S" fromLane="2" toLane="0" dir="l"/>
    <connection from="E_H_1_1_W" to="E_V_1_0_N" fromLane="0" toLane="0" dir="r"/>
    <connection from="E_V_1_0_N" to="E_V_2_0_N" fromLane="1" toLane="1" dir="s"/>
    <connection from="E_V_1_0_N" to="E_H_2_0_E" fromLane="0" toLane="0" dir="r"/>
    <connection from="E_V_2_0_S" to="E_V_1_0_S" fromLane="1" toLane="1" dir="s"/>
    <connection from="E_V_2_0_S" to="E_H_1_0_E" fromLane="2" toLane="0" dir="l"/>
    <connection from="E_H_1_1_E" to="E_H_1_2_E" fromLane="1" toLane="1" dir="s"/>
    <connection from="E_H_1_1_E" to="E_V_1_1_N" fromLane="2" toLane="0" dir="l"/>
    <connection from="E_H_1_1_E" to="E_V_1_1_S" fromLane="0" toLane="0" dir="r"/>
    <connection from="E_H_1_2_W" to="E_H_1_1_W" fromLane="1" toLane="1" dir="s"/>
    <connection from="E_H_1_2_W" to="E_V_1_1_S" fromLane="2" toLane="0" dir="l"/>
    <connection from="E_H_1_2_W" to="E_V_1_1_N" fromLane="0" toLane="0" dir="r"/>
    <connection from="E_V_1_1_N" to="E_V_2_1_N" fromLane="1" toLane="1" dir="s"/>
    <connection from="E_V_1_1_N" to="E_H_2_1_W" fromLane="2" toLane="0" dir="l"/>
    <connection from="E_V_1_1_N" to="E_H_2_1_E" fromLane="0" toLane="0" dir="r"/>
    <connection from="E_V_2_1_S" to="E_V_1_1_S" fromLane="1" toLane="1" dir="s"/>
    <connection from="E_V_2_1_S" to="E_H_1_1_E" fromLane="2" toLane="0" dir="l"/>
    <connection from="E_V_2_1_S" to="E_H_1_1_W" fromLane="0" toLane="0" dir="r"/>
    <connection from="E_H_1_2_E" to="E_H_1_3_E" fromLane="1" toLane="1" dir="s"/>
    <connection from="E_H_1_2_E" to="E_V_1_2_N" fromLane="2" toLane="0" dir="l"/>
    <connection from="E_H_1_2_E" to="E_V_1_2_S" fromLane="0" toLane="0" dir="r"/>
    <connection from="E_H_1_3_W" to="E_H_1_2_W" fromLane="1" toLane="1" dir="s"/>
    <connection from="E_H_1_3_W" to="E_V_1_2_S" fromLane="2" toLane="0" dir="l"/>
    <connection from="E_H_1_3_W" to="E_V_1_2_N" fromLane="0" toLane="0" dir="r"/>
    <connection from="E_V_1_2_N" to="E_V_2_2_N" fromLane="1" toLane="1" dir="s"/>
    <connection from="E_V_1_2_N" to="E_H_2_2_W" fromLane="2" toLane="0" dir="l"/>
    <connection from="E_V_1_2_N" to="E_H_2_2_E" fromLane="0" toLane="0" dir="r"/>
    <connection from="E_V_2_2_S" to="E_V_1_2_S" fromLane="1" toLane="1" dir="s"/>
    <connection from="E_V_2_2_S" to="E_H_1_2_E" fromLane="2" toLane="0" dir="l"/>
    <connection from="E_V_2_2_S" to="E_H_1_2_W" fromLane="0" toLane="0" dir="r"/>
    <connection from="E_H_1_3_E" to="E_H_1_4_E" fromLane="1" toLane="1" dir="s"/>
    <connection from="E_H_1_3_E" to="E_V_1_3_N" fromLane="2" toLane="0" dir="l"/>
    <connection from="E_H_1_3_E" to="E_V_1_3_S" fromLane="0" toLane="0" dir="r"/>
    <connection from="E_H_1_4_W" to="E_H_1_3_W" fromLane="1" toLane="1" dir="s"/>
    <connection from="E_H_1_4_W" to="E_V_1_3_S" fromLane="2" toLane="0" dir="l"/>
    <connection from="E_H_1_4_W" to="E_V_1_3_N" fromLane="0" toLane="0" dir="r"/>
    <connection from="E_V_1_3_N" to="E_V_2_3_N" fromLane="1" toLane="1" dir="s"/>
    <connection from="E_V_1_3_N" to="E_H_2_3_W" fromLane="2" toLane="0" dir="l"/>
    <connection from="E_V_1_3_N" to="E_H_2_3_E" fromLane="0" toLane="0" dir="r"/>
    <connection from="E_V_2_3_S" to="E_V_1_3_S" fromLane="1" toLane="1" dir="s"/>
    <connection from="E_V_2_3_S" to="E_H_1_3_E" fromLane="2" toLane="0" dir="l"/>
    <connection from="E_V_2_3_S" to="E_H_1_3_W" fromLane="0" toLane="0" dir="r"/>
    <connection from="E_H_1_4_E" to="E_H_1_5_E" fromLane="1" toLane="1" dir="s"/>
    <connection from="E_H_1_4_E" to="E_V_1_4_N" fromLane="2" toLane="0" dir="l"/>
    <connection from="E_H_1_4_E" to="E_V_1_4_S" fromLane="0" toLane="0" dir="r"/>
    <connection from="E_H_1_5_W" to="E_H_1_4_W" fromLane="1" toLane="1" dir="s"/>
    <connection from="E_H_1_5_W" to="E_V_1_4_S" fromLane="2" toLane="0" dir="l"/>
    <connection from="E_H_1_5_W" to="E_V_1_4_N" fromLane="0" toLane="0" dir="r"/>
    <connection from="E_V_1_4_N" to="E_V_2_4_N" fromLane="1" toLane="1" dir="s"/>
    <connection from="E_V_1_4_N" to="E_H_2_4_W" fromLane="2" toLane="0" dir="l"/>
    <connection from="E_V_1_4_N" to="E_H_2_4_E" fromLane="0" toLane="0" dir="r"/>
    <connection from="E_V_2_4_S" to="E_V_1_4_S" fromLane="1" toLane="1" dir="s"/>
    <connection from="E_V_2_4_S" to="E_H_1_4_E" fromLane="2" toLane="0" dir="l"/>
    <connection from="E_V_2_4_S" to="E_H_1_4_W" fromLane="0" toLane="0" dir="r"/>
    <connection from="E_H_1_5_E" to="E_H_1_6_E" fromLane="1" toLane="1" dir="s"/>
    <connection from="E_H_1_5_E" to="E_V_1_5_N" fromLane="2" toLane="0" dir="l"/>
    <connection from="E_H_1_5_E" to="E_V_1_5_S" fromLane="0" toLane="0" dir="r"/>
    <connection from="E_H_1_6_W" to="E_H_1_5_W" fromLane="1" toLane="1" dir="s"/>
    <connection from="E_H_1_6_W" to="E_V_1_5_S" fromLane="2" toLane="0" dir="l"/>
    <connection from="E_H_1_6_W" to="E_V_1_5_N" fromLane="0" toLane="0" dir="r"/>
    <connection from="E_V_1_5_N" to="E_V_2_5_N" fromLane="1" toLane="1" dir="s"/>
    <connection from="E_V_1_5_N" to="E_H_2_5_W" fromLane="2" toLane="0" dir="l"/>
    <connection from="E_V_1_5_N" to="E_H_2_5_E" fromLane="0" toLane="0" dir="r"/>
    <connection from="E_V_2_5_S" to="E_V_1_5_S" fromLane="1" toLane="1" dir="s"/>
    <connection from="E_V_2_5_S" to="E_H_1_5_E" fromLane="2" toLane="0" dir="l"/>
    <connection from="E_V_2_5_S" to="E_H_1_5_W" fromLane="0" toLane="0" dir="r"/>
    <connection from="E_H_1_6_E" to="E_H_1_7_E" fromLane="1" toLane="1" dir="s"/>
    <connection from="E_H_1_6_E" to="E_V_1_6_N" fromLane="2" toLane="0" dir="l"/>
    <connection from="E_H_1_6_E" to="E_V_1_6_S" fromLane="0" toLane="0" dir="r"/>
    <connection from="E_H_1_7_W" to="E_H_1_6_W" fromLane="1" toLane="1" dir="s"/>
    <connection from="E_H_1_7_W" to="E_V_1_6_S" fromLane="2" toLane="0" dir="l"/>
    <connection from="E_H_1_7_W" to="E_V_1_6_N" fromLane="0" toLane="0" dir="r"/>
    <connection from="E_V_1_6_N" to="E_V_2_6_N" fromLane="1" toLane="1" dir="s"/>
    <connection from="E_V_1_6_N" to="E_H_2_6_W" fromLane="2" toLane="0" dir="l"/>
    <connection from="E_V_1_6_N" to="E_H_2_6_E" fromLane="0" toLane="0" dir="r"/>
    <connection from="E_V_2_6_S" to="E_V_1_6_S" fromLane="1" toLane="1" dir="s"/>
    <connection from="E_V_2_6_S" to="E_H_1_6_E" fromLane="2" toLane="0" dir="l"/>
    <connection from="E_V_2_6_S" to="E_H_1_6_W" fromLane="0" toLane="0" dir="r"/>
    <connection from="E_H_1_7_E" to="E_H_1_8_E" fromLane="1" toLane="1" dir="s"/>
    <connection from="E_H_1_7_E" to="E_V_1_7_N" fromLane="2" toLane="0" dir="l"/>
    <connection from="E_H_1_7_E" to="E_V_1_7_S" fromLane="0" toLane="0" dir="r"/>
    <connection from="E_H_1_8_W" to="E_H_1_7_W" fromLane="1" toLane="1" dir="s"/>
    <connection from="E_H_1_8_W" to="E_V_1_7_S" fromLane="2" toLane="0" dir="l"/>
    <connection from="E_H_1_8_W" to="E_V_1_7_N" fromLane="0" toLane="0" dir="r"/>
    <connection from="E_V_1_7_N" to="E_V_2_7_N" fromLane="1" toLane="1" dir="s"/>
    <connection from="E_V_1_7_N" to="E_H_2_7_W" fromLane="2" toLane="0" dir="l"/>
    <connection from="E_V_1_7_N" to="E_H_2_7_E" fromLane="0" toLane="0" dir="r"/>
    <connection from="E_V_2_7_S" to="E_V_1_7_S" fromLane="1" toLane="1" dir="s"/>
    <connection from="E_V_2_7_S" to="E_H_1_7_E" fromLane="2" toLane="0" dir="l"/>
    <connection from="E_V_2_7_S" to="E_H_1_7_W" fromLane="0" toLane="0" dir="r"/>
    <connection from="E_H_1_8_E" to="E_V_1_8_N" fromLane="2" toLane="0" dir="l"/>
    <connection from="E_H_1_8_E" to="E_V_1_8_S" fromLane="0" toLane="0" dir="r"/>
    <connection from="E_V_1_8_N" to="E_V_2_8_N" fromLane="1" toLane="1" dir="s"/>
    <connection from="E_V_1_8_N" to="E_H_2_8_W" fromLane="2" toLane="0" dir="l"/>
    <connection from="E_V_2_8_S" to="E_V_1_8_S" fromLane="1" toLane="1" dir="s"/>
    <connection from="E_V_2_8_S" to="E_H_1_8_W" fromLane="0" toLane="0" dir="r"/>
    <connection from="E_H_2_1_W" to="E_V_2_0_S" fromLane="2" toLane="0" dir="l"/>
    <connection from="E_H_2_1_W" to="E_V_2_0_N" fromLane="0" toLane="0" dir="r"/>
    <connection from="E_V_2_0_N" to="E_V_3_0_N" fromLane="1" toLane="1" dir="s"/>
    <connection from="E_V_2_0_N" to="E_H_3_0_E" fromLane="0" toLane="0" dir="r"/>
    <connection from="E_V_3_0_S" to="E_V_2_0_S" fromLane="1" toLane="1" dir="s"/>
    <connection from="E_V_3_0_S" to="E_H_2_0_E" fromLane="2" toLane="0" dir="l"/>
    <connection from="E_H_2_1_E" to="E_H_2_2_E" fromLane="1" toLane="1" dir="s"/>
    <connection from="E_H_2_1_E" to="E_V_2_1_N" fromLane="2" toLane="0" dir="l"/>
    <connection from="E_H_2_1_E" to="E_V_2_1_S" fromLane="0" toLane="0" dir="r"/>
    <connection from="E_H_2_2_W" to="E_H_2_1_W" fromLane="1" toLane="1" dir="s"/>
    <connection from="E_H_2_2_W" to="E_V_2_1_S" fromLane="2" toLane="0" dir="l"/>
    <connection from="E_H_2_2_W" to="E_V_2_1_N" fromLane="0" toLane="0" dir="r"/>
    <connection from="E_V_2_1_N" to="E_V_3_1_N" fromLane="1" toLane="1" dir="s"/>
    <connection from="E_V_2_1_N" to="E_H_3_1_W" fromLane="2" toLane="0" dir="l"/>
    <connection from="E_V_2_1_N" to="E_H_3_1_E" fromLane="0" toLane="0" dir="r"/>
    <connection from="E_V_3_1_S" to="E_V_2_1_S" fromLane="1" toLane="1" dir="s"/>
    <connection from="E_V_3_1_S" to="E_H_2_1_E" fromLane="2" toLane="0" dir="l"/>
    <connection from="E_V_3_1_S" to="E_H_2_1_W" fromLane="0" toLane="0" dir="r"/>
    <connection from="E_H_2_2_E" to="E_H_2_3_E" fromLane="1" toLane="1" dir="s"/>
    <connection from="E_H_2_2_E" to="E_V_2_2_N" fromLane="2" toLane="0" dir="l"/>
    <connection from="E_H_2_2_E" to="E_V_2_2_S" fromLane="0" toLane="0" dir="r"/>
    <connection from="E_H_2_3_W" to="E_H_2_2_W" fromLane="1" toLane="1" dir="s"/>
    <connection from="E_H_2_3_W" to="E_V_2_2_S" fromLane="2" toLane="0" dir="l"/>
    <connection from="E_H_2_3_W" to="E_V_2_2_N" fromLane="0" toLane="0" dir="r"/>
    <connection from="E_V_2_2_N" to="E_V_3_2_N" fromLane="1" toLane="1" dir="s"/>
    <connection from="E_V_2_2_N" to="E_H_3_2_W" fromLane="2" toLane="0" dir="l"/>
    <connection from="E_V_2_2_N" to="E_H_3_2_E" fromLane="0" toLane="0" dir="r"/>
    <connection from="E_V_3_2_S" to="E_V_2_2_S" fromLane="1" toLane="1" dir="s"/>
    <connection from="E_V_3_2_S" to="E_H_2_2_E" fromLane="2" toLane="0" dir="l"/>
    <connection from="E_V_3_2_S" to="E_H_2_2_W" fromLane="0" toLane="0" dir="r"/>
    <connection from="E_H_2_3_E" to="E_H_2_4_E" fromLane="1" toLane="1" dir="s"/>
    <connection from="E_H_2_3_E" to="E_V_2_3_N" fromLane="2" toLane="0" dir="l"/>
    <connection from="E_H_2_3_E" to="E_V_2_3_S" fromLane="0" toLane="0" dir="r"/>
    <connection from="E_H_2_4_W" to="E_H_2_3_W" fromLane="1" toLane="1" dir="s"/>
    <connection from="E_H_2_4_W" to="E_V_2_3_S" fromLane="2" toLane="0" dir="l"/>
    <connection from="E_H_2_4_W" to="E_V_2_3_N" fromLane="0" toLane="0" dir="r"/>
    <connection from="E_V_2_3_N" to="E_V_3_3_N" fromLane="1" toLane="1" dir="s"/>
    <connection from="E_V_2_3_N" to="E_H_3_3_W" fromLane="2" toLane="0" dir="l"/>
    <connection from="E_V_2_3_N" to="E_H_3_3_E" fromLane="0" toLane="0" dir="r"/>
    <connection from="E_V_3_3_S" to="E_V_2_3_S" fromLane="1" toLane="1" dir="s"/>
    <connection from="E_V_3_3_S" to="E_H_2_3_E" fromLane="2" toLane="0" dir="l"/>
    <connection from="E_V_3_3_S" to="E_H_2_3_W" fromLane="0" toLane="0" dir="r"/>
    <connection from="E_H_2_4_E" to="E_H_2_5_E" fromLane="1" toLane="1" dir="s"/>
    <connection from="E_H_2_4_E" to="E_V_2_4_N" fromLane="2" toLane="0" dir="l"/>
    <connection from="E_H_2_4_E" to="E_V_2_4_S" fromLane="0" toLane="0" dir="r"/>
    <connection from="E_H_2_5_W" to="E_H_2_4_W" fromLane="1" toLane="1" dir="s"/>
    <connection from="E_H_2_5_W" to="E_V_2_4_S" fromLane="2" toLane="0" dir="l"/>
    <connection from="E_H_2_5_W" to="E_V_2_4_N" fromLane="0" toLane="0" dir="r"/>
    <connection from="E_V_2_4_N" to="E_V_3_4_N" fromLane="1" toLane="1" dir="s"/>
    <connection from="E_V_2_4_N" to="E_H_3_4_W" fromLane="2" toLane="0" dir="l"/>
    <connection from="E_V_2_4_N" to="E_H_3_4_E" fromLane="0" toLane="0" dir="r"/>
    <connection from="E_V_3_4_S" to="E_V_2_4_S" fromLane="1" toLane="1" dir="s"/>
    <connection from="E_V_3_4_S" to="E_H_2_4_E" fromLane="2" toLane="0" dir="l"/>
    <connection from="E_V_3_4_S" to="E_H_2_4_W" fromLane="0" toLane="0" dir="r"/>
    <connection from="E_H_2_5_E" to="E_H_2_6_E" fromLane="1" toLane="1" dir="s"/>
    <connection from="E_H_2_5_E" to="E_V_2_5_N" fromLane="2" toLane="0" dir="l"/>
    <connection from="E_H_2_5_E" to="E_V_2_5_S" fromLane="0" toLane="0" dir="r"/>
    <connection from="E_H_2_6_W" to="E_H_2_5_W" fromLane="1" toLane="1" dir="s"/>
    <connection from="E_H_2_6_W" to="E_V_2_5_S" fromLane="2" toLane="0" dir="l"/>
    <connection from="E_H_2_6_W" to="E_V_2_5_N" fromLane="0" toLane="0" dir="r"/>
    <connection from="E_V_2_5_N" to="E_V_3_5_N" fromLane="1" toLane="1" dir="s"/>
    <connection from="E_V_2_5_N" to="E_H_3_5_W" fromLane="2" toLane="0" dir="l"/>
    <connection from="E_V_2_5_N" to="E_H_3_5_E" fromLane="0" toLane="0" dir="r"/>
    <connection from="E_V_3_5_S" to="E_V_2_5_S" fromLane="1" toLane="1" dir="s"/>
    <connection from="E_V_3_5_S" to="E_H_2_5_E" fromLane="2" toLane="0" dir="l"/>
    <connection from="E_V_3_5_S" to="E_H_2_5_W" fromLane="0" toLane="0" dir="r"/>
    <connection from="E_H_2_6_E" to="E_H_2_7_E" fromLane="1" toLane="1" dir="s"/>
    <connection from="E_H_2_6_E" to="E_V_2_6_N" fromLane="2" toLane="0" dir="l"/>
    <connection from="E_H_2_6_E" to="E_V_2_6_S" fromLane="0" toLane="0" dir="r"/>
    <connection from="E_H_2_7_W" to="E_H_2_6_W" fromLane="1" toLane="1" dir="s"/>
    <connection from="E_H_2_7_W" to="E_V_2_6_S" fromLane="2" toLane="0" dir="l"/>
    <connection from="E_H_2_7_W" to="E_V_2_6_N" fromLane="0" toLane="0" dir="r"/>
    <connection from="E_V_2_6_N" to="E_V_3_6_N" fromLane="1" toLane="1" dir="s"/>
    <connection from="E_V_2_6_N" to="E_H_3_6_W" fromLane="2" toLane="0" dir="l"/>
    <connection from="E_V_2_6_N" to="E_H_3_6_E" fromLane="0" toLane="0" dir="r"/>
    <connection from="E_V_3_6_S" to="E_V_2_6_S" fromLane="1" toLane="1" dir="s"/>
    <connection from="E_V_3_6_S" to="E_H_2_6_E" fromLane="2" toLane="0" dir="l"/>
    <connection from="E_V_3_6_S" to="E_H_2_6_W" fromLane="0" toLane="0" dir="r"/>
    <connection from="E_H_2_7_E" to="E_H_2_8_E" fromLane="1" toLane="1" dir="s"/>
    <connection from="E_H_2_7_E" to="E_V_2_7_N" fromLane="2" toLane="0" dir="l"/>
    <connection from="E_H_2_7_E" to="E_V_2_7_S" fromLane="0" toLane="0" dir="r"/>
    <connection from="E_H_2_8_W" to="E_H_2_7_W" fromLane="1" toLane="1" dir="s"/>
    <connection from="E_H_2_8_W" to="E_V_2_7_S" fromLane="2" toLane="0" dir="l"/>
    <connection from="E_H_2_8_W" to="E_V_2_7_N" fromLane="0" toLane="0" dir="r"/>
    <connection from="E_V_2_7_N" to="E_V_3_7_N" fromLane="1" toLane="1" dir="s"/>
    <connection from="E_V_2_7_N" to="E_H_3_7_W" fromLane="2" toLane="0" dir="l"/>
    <connection from="E_V_2_7_N" to="E_H_3_7_E" fromLane="0" toLane="0" dir="r"/>
    <connection from="E_V_3_7_S" to="E_V_2_7_S" fromLane="1" toLane="1" dir="s"/>
    <connection from="E_V_3_7_S" to="E_H_2_7_E" fromLane="2" toLane="0" dir="l"/>
    <connection from="E_V_3_7_S" to="E_H_2_7_W" fromLane="0" toLane="0" dir="r"/>
    <connection from="E_H_2_8_E" to="E_V_2_8_N" fromLane="2" toLane="0" dir="l"/>
    <connection from="E_H_2_8_E" to="E_V_2_8_S" fromLane="0" toLane="0" dir="r"/>
    <connection from="E_V_2_8_N" to="E_V_3_8_N" fromLane="1" toLane="1" dir="s"/>
    <connection from="E_V_2_8_N" to="E_H_3_8_W" fromLane="2" toLane="0" dir="l"/>
    <connection from="E_V_3_8_S" to="E_V_2_8_S" fromLane="1" toLane="1" dir="s"/>
    <connection from="E_V_3_8_S" to="E_H_2_8_W" fromLane="0" toLane="0" dir="r"/>
    <connection from="E_H_3_1_W" to="E_V_3_0_S" fromLane="2" toLane="0" dir="l"/>
    <connection from="E_H_3_1_W" to="E_V_3_0_N" fromLane="0" toLane="0" dir="r"/>
    <connection from="E_V_3_0_N" to="E_V_4_0_N" fromLane="1" toLane="1" dir="s"/>
    <connection from="E_V_3_0_N" to="E_H_4_0_E" fromLane="0" toLane="0" dir="r"/>
    <connection from="E_V_4_0_S" to="E_V_3_0_S" fromLane="1" toLane="1" dir="s"/>
    <connection from="E_V_4_0_S" to="E_H_3_0_E" fromLane="2" toLane="0" dir="l"/>
    <connection from="E_H_3_1_E" to="E_H_3_2_E" fromLane="1" toLane="1" dir="s"/>
    <connection from="E_H_3_1_E" to="E_V_3_1_N" fromLane="2" toLane="0" dir="l"/>
    <connection from="E_H_3_1_E" to="E_V_3_1_S" fromLane="0" toLane="0" dir="r"/>
    <connection from="E_H_3_2_W" to="E_H_3_1_W" fromLane="1" toLane="1" dir="s"/>
    <connection from="E_H_3_2_W" to="E_V_3_1_S" fromLane="2" toLane="0" dir="l"/>
    <connection from="E_H_3_2_W" to="E_V_3_1_N" fromLane="0" toLane="0" dir="r"/>
    <connection from="E_V_3_1_N" to="E_V_4_1_N" fromLane="1" toLane="1" dir="s"/>
    <connection from="E_V_3_1_N" to="E_H_4_1_W" fromLane="2" toLane="0" dir="l"/>
    <connection from="E_V_3_1_N" to="E_H_4_1_E" fromLane="0" toLane="0" dir="r"/>
    <connection from="E_V_4_1_S" to="E_V_3_1_S" fromLane="1" toLane="1" dir="s"/>
    <connection from="E_V_4_1_S" to="E_H_3_1_E" fromLane="2" toLane="0" dir="l"/>
    <connection from="E_V_4_1_S" to="E_H_3_1_W" fromLane="0" toLane="0" dir="r"/>
    <connection from="E_H_3_2_E" to="E_H_3_3_E" fromLane="1" toLane="1" dir="s"/>
    <connection from="E_H_3_2_E" to="E_V_3_2_N" fromLane="2" toLane="0" dir="l"/>
    <connection from="E_H_3_2_E" to="E_V_3_2_S" fromLane="0" toLane="0" dir="r"/>
    <connection from="E_H_3_3_W" to="E_H_3_2_W" fromLane="1" toLane="1" dir="s"/>
    <connection from="E_H_3_3_W" to="E_V_3_2_S" fromLane="2" toLane="0" dir="l"/>
    <connection from="E_H_3_3_W" to="E_V_3_2_N" fromLane="0" toLane="0" dir="r"/>
    <connection from="E_V_3_2_N" to="E_V_4_2_N" fromLane="1" toLane="1" dir="s"/>
    <connection from="E_V_3_2_N" to="E_H_4_2_W" fromLane="2" toLane="0" dir="l"/>
    <connection from="E_V_3_2_N" to="E_H_4_2_E" fromLane="0" toLane="0" dir="r"/>
    <connection from="E_V_4_2_S" to="E_V_3_2_S" fromLane="1" toLane="1" dir="s"/>
    <connection from="E_V_4_2_S" to="E_H_3_2_E" fromLane="2" toLane="0" dir="l"/>
    <connection from="E_V_4_2_S" to="E_H_3_2_W" fromLane="0" toLane="0" dir="r"/>
    <connection from="E_H_3_3_E" to="E_H_3_4_E" fromLane="1" toLane="1" dir="s"/>
    <connection from="E_H_3_3_E" to="E_V_3_3_N" fromLane="2" toLane="0" dir="l"/>
    <connection from="E_H_3_3_E" to="E_V_3_3_S" fromLane="0" toLane="0" dir="r"/>
    <connection from="E_H_3_4_W" to="E_H_3_3_W" fromLane="1" toLane="1" dir="s"/>
    <connection from="E_H_3_4_W" to="E_V_3_3_S" fromLane="2" toLane="0" dir="l"/>
    <connection from="E_H_3_4_W" to="E_V_3_3_N" fromLane="0" toLane="0" dir="r"/>
    <connection from="E_V_3_3_N" to="E_V_4_3_N" fromLane="1" toLane="1" dir="s"/>
    <connection from="E_V_3_3_N" to="E_H_4_3_W" fromLane="2" toLane="0" dir="l"/>
    <connection from="E_V_3_3_N" to="E_H_4_3_E" fromLane="0" toLane="0" dir="r"/>
    <connection from="E_V_4_3_S" to="E_V_3_3_S" fromLane="1" toLane="1" dir="s"/>
    <connection from="E_V_4_3_S" to="E_H_3_3_E" fromLane="2" toLane="0" dir="l"/>
    <connection from="E_V_4_3_S" to="E_H_3_3_W" fromLane="0" toLane="0" dir="r"/>
    <connection from="E_H_3_4_E" to="E_H_3_5_E" fromLane="1" toLane="1" dir="s"/>
    <connection from="E_H_3_4_E" to="E_V_3_4_N" fromLane="2" toLane="0" dir="l"/>
    <connection from="E_H_3_4_E" to="E_V_3_4_S" fromLane="0" toLane="0" dir="r"/>
    <connection from="E_H_3_5_W" to="E_H_3_4_W" fromLane="1" toLane="1" dir="s"/>
    <connection from="E_H_3_5_W" to="E_V_3_4_S" fromLane="2" toLane="0" dir="l"/>
    <connection from="E_H_3_5_W" to="E_V_3_4_N" fromLane="0" toLane="0" dir="r"/>
    <connection from="E_V_3_4_N" to="E_V_4_4_N" fromLane="1" toLane="1" dir="s"/>
    <connection from="E_V_3_4_N" to="E_H_4_4_W" fromLane="2" toLane="0" dir="l"/>
    <connection from="E_V_3_4_N" to="E_H_4_4_E" fromLane="0" toLane="0" dir="r"/>
    <connection from="E_V_4_4_S" to="E_V_3_4_S" fromLane="1" toLane="1" dir="s"/>
    <connection from="E_V_4_4_S" to="E_H_3_4_E" fromLane="2" toLane="0" dir="l"/>
    <connection from="E_V_4_4_S" to="E_H_3_4_W" fromLane="0" toLane="0" dir="r"/>
    <connection from="E_H_3_5_E" to="E_H_3_6_E" fromLane="1" toLane="1" dir="s"/>
    <connection from="E_H_3_5_E" to="E_V_3_5_N" fromLane="2" toLane="0" dir="l"/>
    <connection from="E_H_3_5_E" to="E_V_3_5_S" fromLane="0" toLane="0" dir="r"/>
    <connection from="E_H_3_6_W" to="E_H_3_5_W" fromLane="1" toLane="1" dir="s"/>
    <connection from="E_H_3_6_W" to="E_V_3_5_S" fromLane="2" toLane="0" dir="l"/>
    <connection from="E_H_3_6_W" to="E_V_3_5_N" fromLane="0" toLane="0" dir="r"/>
    <connection from="E_V_3_5_N" to="E_V_4_5_N" fromLane="1" toLane="1" dir="s"/>
    <connection from="E_V_3_5_N" to="E_H_4_5_W" fromLane="2" toLane="0" dir="l"/>
    <connection from="E_V_3_5_N" to="E_H_4_5_E" fromLane="0" toLane="0" dir="r"/>
    <connection from="E_V_4_5_S" to="E_V_3_5_S" fromLane="1" toLane="1" dir="s"/>
    <connection from="E_V_4_5_S" to="E_H_3_5_E" fromLane="2" toLane="0" dir="l"/>
    <connection from="E_V_4_5_S" to="E_H_3_5_W" fromLane="0" toLane="0" dir="r"/>
    <connection from="E_H_3_6_E" to="E_H_3_7_E" fromLane="1" toLane="1" dir="s"/>
    <connection from="E_H_3_6_E" to="E_V_3_6_N" fromLane="2" toLane="0" dir="l"/>
    <connection from="E_H_3_6_E" to="E_V_3_6_S" fromLane="0" toLane="0" dir="r"/>
    <connection from="E_H_3_7_W" to="E_H_3_6_W" fromLane="1" toLane="1" dir="s"/>
    <connection from="E_H_3_7_W" to="E_V_3_6_S" fromLane="2" toLane="0" dir="l"/>
    <connection from="E_H_3_7_W" to="E_V_3_6_N" fromLane="0" toLane="0" dir="r"/>
    <connection from="E_V_3_6_N" to="E_V_4_6_N" fromLane="1" toLane="1" dir="s"/>
    <connection from="E_V_3_6_N" to="E_H_4_6_W" fromLane="2" toLane="0" dir="l"/>
    <connection from="E_V_3_6_N" to="E_H_4_6_E" fromLane="0" toLane="0" dir="r"/>
    <connection from="E_V_4_6_S" to="E_V_3_6_S" fromLane="1" toLane="1" dir="s"/>
    <connection from="E_V_4_6_S" to="E_H_3_6_E" fromLane="2" toLane="0" dir="l"/>
    <connection from="E_V_4_6_S" to="E_H_3_6_W" fromLane="0" toLane="0" dir="r"/>
    <connection from="E_H_3_7_E" to="E_H_3_8_E" fromLane="1" toLane="1" dir="s"/>
    <connection from="E_H_3_7_E" to="E_V_3_7_N" fromLane="2" toLane="0" dir="l"/>
    <connection from="E_H_3_7_E" to="E_V_3_7_S" fromLane="0" toLane="0" dir="r"/>
    <connection from="E_H_3_8_W" to="E_H_3_7_W" fromLane="1" toLane="1" dir="s"/>
    <connection from="E_H_3_8_W" to="E_V_3_7_S" fromLane="2" toLane="0" dir="l"/>
    <connection from="E_H_3_8_W" to="E_V_3_7_N" fromLane="0" toLane="0" dir="r"/>
    <connection from="E_V_3_7_N" to="E_V_4_7_N" fromLane="1" toLane="1" dir="s"/>
    <connection from="E_V_3_7_N" to="E_H_4_7_W" fromLane="2" toLane="0" dir="l"/>
    <connection from="E_V_3_7_N" to="E_H_4_7_E" fromLane="0" toLane="0" dir="r"/>
    <connection from="E_V_4_7_S" to="E_V_3_7_S" fromLane="1" toLane="1" dir="s"/>
    <connection from="E_V_4_7_S" to="E_H_3_7_E" fromLane="2" toLane="0" dir="l"/>
    <connection from="E_V_4_7_S" to="E_H_3_7_W" fromLane="0" toLane="0" dir="r"/>
    <connection from="E_H_3_8_E" to="E_V_3_8_N" fromLane="2" toLane="0" dir="l"/>
    <connection from="E_H_3_8_E" to="E_V_3_8_S" fromLane="0" toLane="0" dir="r"/>
    <connection from="E_V_3_8_N" to="E_V_4_8_N" fromLane="1" toLane="1" dir="s"/>
    <connection from="E_V_3_8_N" to="E_H_4_8_W" fromLane="2" toLane="0" dir="l"/>
    <connection from="E_V_4_8_S" to="E_V_3_8_S" fromLane="1" toLane="1" dir="s"/>
    <connection from="E_V_4_8_S" to="E_H_3_8_W" fromLane="0" toLane="0" dir="r"/>
    <connection from="E_H_4_1_W" to="E_V_4_0_S" fromLane="2" toLane="0" dir="l"/>
    <connection from="E_H_4_1_W" to="E_V_4_0_N" fromLane="0" toLane="0" dir="r"/>
    <connection from="E_V_4_0_N" to="E_V_5_0_N" fromLane="1" toLane="1" dir="s"/>
    <connection from="E_V_4_0_N" to="E_H_5_0_E" fromLane="0" toLane="0" dir="r"/>
    <connection from="E_V_5_0_S" to="E_V_4_0_S" fromLane="1" toLane="1" dir="s"/>
    <connection from="E_V_5_0_S" to="E_H_4_0_E" fromLane="2" toLane="0" dir="l"/>
    <connection from="E_H_4_1_E" to="E_H_4_2_E" fromLane="1" toLane="1" dir="s"/>
    <connection from="E_H_4_1_E" to="E_V_4_1_N" fromLane="2" toLane="0" dir="l"/>
    <connection from="E_H_4_1_E" to="E_V_4_1_S" fromLane="0" toLane="0" dir="r"/>
    <connection from="E_H_4_2_W" to="E_H_4_1_W" fromLane="1" toLane="1" dir="s"/>
    <connection from="E_H_4_2_W" to="E_V_4_1_S" fromLane="2" toLane="0" dir="l"/>
    <connection from="E_H_4_2_W" to="E_V_4_1_N" fromLane="0" toLane="0" dir="r"/>
    <connection from="E_V_4_1_N" to="E_V_5_1_N" fromLane="1" toLane="1" dir="s"/>
    <connection from="E_V_4_1_N" to="E_H_5_1_W" fromLane="2" toLane="0" dir="l"/>
    <connection from="E_V_4_1_N" to="E_H_5_1_E" fromLane="0" toLane="0" dir="r"/>
    <connection from="E_V_5_1_S" to="E_V_4_1_S" fromLane="1" toLane="1" dir="s"/>
    <connection from="E_V_5_1_S" to="E_H_4_1_E" fromLane="2" toLane="0" dir="l"/>
    <connection from="E_V_5_1_S" to="E_H_4_1_W" fromLane="0" toLane="0" dir="r"/>
    <connection from="E_H_4_2_E" to="E_H_4_3_E" fromLane="1" toLane="1" dir="s"/>
    <connection from="E_H_4_2_E" to="E_V_4_2_N" fromLane="2" toLane="0" dir="l"/>
    <connection from="E_H_4_2_E" to="E_V_4_2_S" fromLane="0" toLane="0" dir="r"/>
    <connection from="E_H_4_3_W" to="E_H_4_2_W" fromLane="1" toLane="1" dir="s"/>
    <connection from="E_H_4_3_W" to="E_V_4_2_S" fromLane="2" toLane="0" dir="l"/>
    <connection from="E_H_4_3_W" to="E_V_4_2_N" fromLane="0" toLane="0" dir="r"/>
    <connection from="E_V_4_2_N" to="E_V_5_2_N" fromLane="1" toLane="1" dir="s"/>
    <connection from="E_V_4_2_N" to="E_H_5_2_W" fromLane="2" toLane="0" dir="l"/>
    <connection from="E_V_4_2_N" to="E_H_5_2_E" fromLane="0" toLane="0" dir="r"/>
    <connection from="E_V_5_2_S" to="E_V_4_2_S" fromLane="1" toLane="1" dir="s"/>
    <connection from="E_V_5_2_S" to="E_H_4_2_E" fromLane="2" toLane="0" dir="l"/>